<?xml version="1.0" encoding="UTF-8"?>

<!-- generated on 01/17/21 11:17:48 by Eclipse SUMO netconvert Version 1.6.0
<configuration xmlns:xsi="http://www.w3.org/2001/XMLSchema-instance" xsi:noNamespaceSchemaLocation="http://sumo.dlr.de/xsd/netconvertConfiguration.xsd">

    <input>
        <sumo-net-file value="osm.net.xml"/>
    </input>

    <output>
        <output-file value="osm_new.net.xml"/>
        <output.street-names value="true"/>
    </output>

    <processing>
        <geometry.min-radius.fix.railways value="false"/>
        <geometry.max-grade.fix value="false"/>
        <offset.disable-normalization value="true"/>
        <lefthand value="true"/>
    </processing>

    <edge_removal>
        <keep-edges.by-vclass value="passenger"/>
        <remove-edges.by-vclass value="hov,taxi,bus,delivery,transport,lightrail,cityrail,rail_slow,rail_fast,motorcycle,bicycle,pedestrian"/>
        <remove-edges.by-type value="highway.track,highway.services,highway.unsurfaced"/>
    </edge_removal>

    <junctions>
        <no-internal-links value="true"/>
        <no-turnarounds value="true"/>
        <junctions.corner-detail value="5"/>
        <junctions.limit-turn-speed value="5.5"/>
        <rectangular-lane-cut value="false"/>
    </junctions>

    <pedestrian>
        <walkingareas value="false"/>
    </pedestrian>

    <report>
        <aggregate-warnings value="5"/>
    </report>

</configuration>
-->

<net version="1.6" junctionCornerDetail="5" lefthand="true" limitTurnSpeed="5.50" xmlns:xsi="http://www.w3.org/2001/XMLSchema-instance" xsi:noNamespaceSchemaLocation="http://sumo.dlr.de/xsd/net_file.xsd">

    <location netOffset="-668413.40,-1512249.35" convBoundary="0.00,0.00,6369.20,8493.04" origBoundary="100.557451,13.658659,100.858347,13.750800" projParameter="+proj=utm +zone=47 +ellps=WGS84 +datum=WGS84 +units=m +no_defs"/>

    <type id="highway.bridleway" priority="1" numLanes="1" speed="2.78" allow="pedestrian" oneway="1" width="2.00"/>
    <type id="highway.bus_guideway" priority="1" numLanes="1" speed="27.78" allow="bus" oneway="1"/>
    <type id="highway.cycleway" priority="1" numLanes="1" speed="8.33" allow="bicycle" oneway="0" width="1.00"/>
    <type id="highway.footway" priority="1" numLanes="1" speed="2.78" allow="pedestrian" oneway="1" width="2.00"/>
    <type id="highway.ford" priority="1" numLanes="1" speed="2.78" allow="army" oneway="0"/>
    <type id="highway.living_street" priority="2" numLanes="1" speed="2.78" disallow="tram rail_urban rail rail_electric rail_fast ship" oneway="0"/>
    <type id="highway.motorway" priority="14" numLanes="2" speed="39.44" allow="private emergency authority army vip passenger hov taxi bus coach delivery truck trailer motorcycle evehicle custom1 custom2" oneway="1"/>
    <type id="highway.motorway_link" priority="9" numLanes="1" speed="22.22" allow="private emergency authority army vip passenger hov taxi bus coach delivery truck trailer motorcycle evehicle custom1 custom2" oneway="1"/>
    <type id="highway.path" priority="1" numLanes="1" speed="2.78" allow="pedestrian bicycle" oneway="1" width="2.00"/>
    <type id="highway.pedestrian" priority="1" numLanes="1" speed="2.78" allow="pedestrian" oneway="1" width="2.00"/>
    <type id="highway.primary" priority="12" numLanes="2" speed="27.78" disallow="tram rail_urban rail rail_electric rail_fast ship" oneway="0"/>
    <type id="highway.primary_link" priority="7" numLanes="1" speed="22.22" disallow="tram rail_urban rail rail_electric rail_fast ship" oneway="0"/>
    <type id="highway.raceway" priority="15" numLanes="2" speed="83.33" allow="vip" oneway="0"/>
    <type id="highway.residential" priority="3" numLanes="1" speed="13.89" disallow="tram rail_urban rail rail_electric rail_fast ship" oneway="0"/>
    <type id="highway.secondary" priority="11" numLanes="1" speed="27.78" disallow="tram rail_urban rail rail_electric rail_fast ship" oneway="0"/>
    <type id="highway.secondary_link" priority="6" numLanes="1" speed="22.22" disallow="tram rail_urban rail rail_electric rail_fast ship" oneway="0"/>
    <type id="highway.service" priority="1" numLanes="1" speed="5.56" allow="pedestrian delivery bicycle" oneway="0"/>
    <type id="highway.stairs" priority="1" numLanes="1" speed="1.39" allow="pedestrian" oneway="1" width="2.00"/>
    <type id="highway.step" priority="1" numLanes="1" speed="1.39" allow="pedestrian" oneway="1" width="2.00"/>
    <type id="highway.steps" priority="1" numLanes="1" speed="1.39" allow="pedestrian" oneway="1" width="2.00"/>
    <type id="highway.tertiary" priority="10" numLanes="1" speed="22.22" disallow="tram rail_urban rail rail_electric rail_fast ship" oneway="0"/>
    <type id="highway.tertiary_link" priority="5" numLanes="1" speed="22.22" disallow="tram rail_urban rail rail_electric rail_fast ship" oneway="0"/>
    <type id="highway.track" priority="1" numLanes="1" speed="5.56" disallow="tram rail_urban rail rail_electric rail_fast ship" oneway="0"/>
    <type id="highway.trunk" priority="13" numLanes="2" speed="27.78" disallow="pedestrian bicycle tram rail_urban rail rail_electric rail_fast ship" oneway="0"/>
    <type id="highway.trunk_link" priority="8" numLanes="1" speed="22.22" disallow="pedestrian bicycle tram rail_urban rail rail_electric rail_fast ship" oneway="0"/>
    <type id="highway.unclassified" priority="4" numLanes="1" speed="13.89" disallow="tram rail_urban rail rail_electric rail_fast ship" oneway="0"/>
    <type id="highway.unsurfaced" priority="1" numLanes="1" speed="8.33" disallow="tram rail_urban rail rail_electric rail_fast ship" oneway="0"/>
    <type id="railway.highspeed" priority="21" numLanes="1" speed="69.44" allow="rail_fast" oneway="1"/>
    <type id="railway.light_rail" priority="19" numLanes="1" speed="27.78" allow="rail_urban" oneway="1"/>
    <type id="railway.preserved" priority="16" numLanes="1" speed="27.78" allow="rail" oneway="1"/>
    <type id="railway.rail" priority="20" numLanes="1" speed="44.44" allow="rail" oneway="1"/>
    <type id="railway.subway" priority="18" numLanes="1" speed="27.78" allow="rail_urban" oneway="1"/>
    <type id="railway.tram" priority="17" numLanes="1" speed="13.89" allow="tram" oneway="1"/>

    <edge id="-113135397#0" from="1283649058" to="3251169733" name="ถนนอ่อนนุช" priority="11" type="highway.secondary" shape="4980.69,4116.11 4955.89,4100.96 4933.43,4086.52 4911.99,4073.27 4892.70,4061.31">
        <lane id="-113135397#0_0" index="0" disallow="tram rail_urban rail rail_electric rail_fast ship" speed="13.89" length="103.66" shape="4976.69,4108.04 4958.44,4096.89 4935.99,4082.46 4914.52,4069.19 4900.68,4060.61">
            <param key="origId" value="113135397 113135473 824456409 824456409"/>
        </lane>
        <lane id="-113135397#0_1" index="1" disallow="tram rail_urban rail rail_electric rail_fast ship" speed="13.89" length="103.66" shape="4975.02,4110.77 4956.74,4099.60 4934.28,4085.17 4912.83,4071.91 4898.99,4063.33">
            <param key="origId" value="113135397 113135473 824456409 824456409"/>
        </lane>
    </edge>
    <edge id="-113135397#10" from="566131331" to="cluster_3260549207_566130878" name="ถนนอ่อนนุช" priority="11" type="highway.secondary" shape="5303.98,4246.77 5269.55,4234.38">
        <lane id="-113135397#10_0" index="0" disallow="tram rail_urban rail rail_electric rail_fast ship" speed="13.89" length="42.51" shape="5298.80,4239.81 5278.51,4232.50">
            <param key="origId" value="113135397"/>
        </lane>
        <lane id="-113135397#10_1" index="1" disallow="tram rail_urban rail rail_electric rail_fast ship" speed="13.89" length="42.51" shape="5297.72,4242.82 5277.42,4235.51">
            <param key="origId" value="113135397"/>
        </lane>
        <param key="origTo" value="3260549207"/>
    </edge>
    <edge id="-113135397#12" from="1975050736" to="566131331" name="ถนนอ่อนนุช" priority="11" type="highway.secondary" shape="5387.50,4277.85 5380.26,4276.23 5352.37,4265.87 5348.10,4264.28 5303.98,4246.77">
        <lane id="-113135397#12_0" index="0" disallow="tram rail_urban rail rail_electric rail_fast ship" speed="13.89" length="89.20" shape="5381.26,4271.48 5354.04,4261.37 5349.82,4259.80 5312.22,4244.88">
            <param key="origId" value="113135397"/>
        </lane>
        <lane id="-113135397#12_1" index="1" disallow="tram rail_urban rail rail_electric rail_fast ship" speed="13.89" length="89.20" shape="5380.55,4274.63 5352.93,4264.37 5348.67,4262.79 5311.04,4247.85">
            <param key="origId" value="113135397"/>
        </lane>
    </edge>
    <edge id="-113135397#13" from="1286878541" to="1975050736" name="ถนนอ่อนนุช" priority="11" type="highway.secondary" shape="5432.58,4276.02 5424.16,4279.40 5409.29,4281.15 5393.52,4279.20 5387.50,4277.85">
        <lane id="-113135397#13_0" index="0" disallow="tram rail_urban rail rail_electric rail_fast ship" speed="13.89" length="46.11" shape="5418.52,4275.23 5409.30,4276.32 5395.32,4274.59">
            <param key="origId" value="113135397"/>
        </lane>
        <lane id="-113135397#13_1" index="1" disallow="tram rail_urban rail rail_electric rail_fast ship" speed="13.89" length="46.11" shape="5419.74,4278.31 5409.29,4279.54 5394.62,4277.72">
            <param key="origId" value="113135397"/>
        </lane>
    </edge>
    <edge id="-113135397#15" from="1286878676" to="1286878541" name="ถนนอ่อนนุช" priority="11" type="highway.secondary" shape="5481.59,4250.22 5451.93,4266.50 5439.99,4273.05 5432.58,4276.02">
        <lane id="-113135397#15_0" index="0" disallow="tram rail_urban rail rail_electric rail_fast ship" speed="13.89" length="55.44" shape="5466.82,4252.85 5449.62,4262.29 5437.94,4268.70 5433.71,4270.40">
            <param key="origId" value="113135397"/>
        </lane>
        <lane id="-113135397#15_1" index="1" disallow="tram rail_urban rail rail_electric rail_fast ship" speed="13.89" length="55.44" shape="5468.36,4255.66 5451.16,4265.10 5439.31,4271.60 5434.90,4273.37">
            <param key="origId" value="113135397"/>
        </lane>
    </edge>
    <edge id="-113135397#16" from="3251169751" to="1286878676" name="ถนนอ่อนนุช" priority="11" type="highway.secondary">
        <lane id="-113135397#16_0" index="0" disallow="tram rail_urban rail rail_electric rail_fast ship" speed="13.89" length="62.86" shape="5522.24,4222.69 5481.50,4244.81">
            <param key="origId" value="113135397"/>
        </lane>
        <lane id="-113135397#16_1" index="1" disallow="tram rail_urban rail rail_electric rail_fast ship" speed="13.89" length="62.86" shape="5523.77,4225.51 5483.03,4247.62">
            <param key="origId" value="113135397"/>
        </lane>
    </edge>
    <edge id="-113135397#17" from="1688188566" to="3251169751" name="ถนนอ่อนนุช" priority="11" type="highway.secondary">
        <lane id="-113135397#17_0" index="0" disallow="tram rail_urban rail rail_electric rail_fast ship" speed="13.89" length="71.09" shape="5587.86,4187.08 5536.81,4214.78">
            <param key="origId" value="113135397"/>
        </lane>
        <lane id="-113135397#17_1" index="1" disallow="tram rail_urban rail rail_electric rail_fast ship" speed="13.89" length="71.09" shape="5589.39,4189.89 5538.34,4217.60">
            <param key="origId" value="113135397"/>
        </lane>
    </edge>
    <edge id="-113135397#18" from="3251169745" to="1688188566" name="ถนนอ่อนนุช" priority="11" type="highway.secondary">
        <lane id="-113135397#18_0" index="0" disallow="tram rail_urban rail rail_electric rail_fast ship" speed="13.89" length="42.82" shape="5625.20,4166.29 5600.91,4179.92">
            <param key="origId" value="113135397"/>
        </lane>
        <lane id="-113135397#18_1" index="1" disallow="tram rail_urban rail rail_electric rail_fast ship" speed="13.89" length="42.82" shape="5626.77,4169.08 5602.47,4182.71">
            <param key="origId" value="113135397"/>
        </lane>
    </edge>
    <edge id="-113135397#19" from="566120196" to="3251169745" name="ถนนอ่อนนุช" priority="11" type="highway.secondary">
        <lane id="-113135397#19_0" index="0" disallow="tram rail_urban rail rail_electric rail_fast ship" speed="13.89" length="57.94" shape="5675.48,4137.92 5638.28,4158.93">
            <param key="origId" value="113135397"/>
        </lane>
        <lane id="-113135397#19_1" index="1" disallow="tram rail_urban rail rail_electric rail_fast ship" speed="13.89" length="57.94" shape="5677.05,4140.70 5639.86,4161.72">
            <param key="origId" value="113135397"/>
        </lane>
    </edge>
    <edge id="-113135397#2" from="70706581" to="1283649058" name="ถนนอ่อนนุช" priority="11" type="highway.secondary" shape="5040.14,4153.17 4990.55,4122.26 4980.69,4116.11">
        <lane id="-113135397#2_0" index="0" disallow="tram rail_urban rail rail_electric rail_fast ship" speed="13.89" length="70.06" shape="5037.85,4146.08 4993.09,4118.19 4988.94,4115.60">
            <param key="origId" value="113135397"/>
        </lane>
        <lane id="-113135397#2_1" index="1" disallow="tram rail_urban rail rail_electric rail_fast ship" speed="13.89" length="70.06" shape="5036.15,4148.80 4991.40,4120.90 4987.25,4118.32">
            <param key="origId" value="113135397"/>
        </lane>
    </edge>
    <edge id="-113135397#20" from="1283869622" to="566120196" name="ถนนอ่อนนุช" priority="11" type="highway.secondary">
        <lane id="-113135397#20_0" index="0" disallow="tram rail_urban rail rail_electric rail_fast ship" speed="13.89" length="45.50" shape="5720.69,4112.99 5694.38,4127.40">
            <param key="origId" value="113135397"/>
        </lane>
        <lane id="-113135397#20_1" index="1" disallow="tram rail_urban rail rail_electric rail_fast ship" speed="13.89" length="45.50" shape="5722.23,4115.80 5695.92,4130.21">
            <param key="origId" value="113135397"/>
        </lane>
    </edge>
    <edge id="-113135397#21" from="1687406785" to="1283869622" name="ถนนอ่อนนุช" priority="11" type="highway.secondary">
        <lane id="-113135397#21_0" index="0" disallow="tram rail_urban rail rail_electric rail_fast ship" speed="13.89" length="76.31" shape="5788.67,4077.98 5733.91,4106.06">
            <param key="origId" value="113135397"/>
        </lane>
        <lane id="-113135397#21_1" index="1" disallow="tram rail_urban rail rail_electric rail_fast ship" speed="13.89" length="76.31" shape="5790.13,4080.83 5735.37,4108.91">
            <param key="origId" value="113135397"/>
        </lane>
    </edge>
    <edge id="-113135397#24" from="1687406783" to="1687406785" name="ถนนอ่อนนุช" priority="11" type="highway.secondary" shape="5885.53,4029.05 5877.83,4033.58 5871.18,4037.50 5794.91,4080.17">
        <lane id="-113135397#24_0" index="0" disallow="tram rail_urban rail rail_electric rail_fast ship" speed="13.89" length="104.05" shape="5879.52,4027.02 5875.39,4029.44 5868.79,4033.34 5802.04,4070.68">
            <param key="origId" value="113135397"/>
        </lane>
        <lane id="-113135397#24_1" index="1" disallow="tram rail_urban rail rail_electric rail_fast ship" speed="13.89" length="104.05" shape="5881.14,4029.77 5877.02,4032.20 5870.38,4036.11 5803.60,4073.48">
            <param key="origId" value="113135397"/>
        </lane>
    </edge>
    <edge id="-113135397#26" from="6681647486" to="1687406783" name="ถนนอ่อนนุช" priority="11" type="highway.secondary" shape="6369.20,3880.55 6334.38,3888.34 6216.13,3914.78 6175.02,3923.96 6064.53,3950.59 6030.44,3958.82 6022.73,3960.82 5990.31,3971.36 5967.36,3983.68 5960.12,3987.65 5922.83,4009.25 5911.68,4015.24 5885.53,4029.05">
        <lane id="-113135397#26_0" index="0" disallow="tram rail_urban rail rail_electric rail_fast ship" speed="13.89" length="509.38" shape="6368.15,3875.87 6333.33,3883.66 6215.08,3910.10 6173.93,3919.28 6063.40,3945.92 6029.27,3954.16 6021.38,3956.21 5988.42,3966.93 5965.08,3979.46 5957.76,3983.47 5920.49,4005.06 5909.42,4011.00 5892.97,4019.69">
            <param key="origId" value="113135397"/>
        </lane>
        <lane id="-113135397#26_1" index="1" disallow="tram rail_urban rail rail_electric rail_fast ship" speed="13.89" length="509.38" shape="6368.85,3878.99 6334.03,3886.78 6215.78,3913.22 6174.66,3922.40 6064.15,3949.03 6030.05,3957.27 6022.28,3959.28 5989.68,3969.88 5966.60,3982.27 5959.33,3986.26 5922.05,4007.85 5910.93,4013.83 5894.46,4022.52">
            <param key="origId" value="113135397"/>
        </lane>
    </edge>
    <edge id="-113135397#4" from="566130689" to="70706581" name="ถนนอ่อนนุช" priority="11" type="highway.secondary" shape="5112.25,4180.92 5076.11,4167.00 5040.14,4153.17">
        <lane id="-113135397#4_0" index="0" disallow="tram rail_urban rail rail_electric rail_fast ship" speed="13.89" length="77.27" shape="5106.90,4173.72 5077.83,4162.52 5048.92,4151.40">
            <param key="origId" value="113135397"/>
        </lane>
        <lane id="-113135397#4_1" index="1" disallow="tram rail_urban rail rail_electric rail_fast ship" speed="13.89" length="77.27" shape="5105.75,4176.70 5076.68,4165.51 5047.77,4154.39">
            <param key="origId" value="113135397"/>
        </lane>
    </edge>
    <edge id="-113135397#6" from="3251169749" to="566130689" name="ถนนอ่อนนุช" priority="11" type="highway.secondary" shape="5187.84,4207.35 5167.31,4200.57 5112.25,4180.92">
        <lane id="-113135397#6_0" index="0" disallow="tram rail_urban rail rail_electric rail_fast ship" speed="13.89" length="80.08" shape="5182.57,4200.55 5168.87,4196.03 5120.44,4178.75">
            <param key="origId" value="113135397"/>
        </lane>
        <lane id="-113135397#6_1" index="1" disallow="tram rail_urban rail rail_electric rail_fast ship" speed="13.89" length="80.08" shape="5181.56,4203.59 5167.83,4199.06 5119.37,4181.76">
            <param key="origId" value="113135397"/>
        </lane>
    </edge>
    <edge id="-113135397#7" from="3260549206" to="3251169749" name="ถนนอ่อนนุช" priority="11" type="highway.secondary">
        <lane id="-113135397#7_0" index="0" disallow="tram rail_urban rail rail_electric rail_fast ship" speed="13.89" length="43.45" shape="5223.49,4213.64 5196.28,4205.00">
            <param key="origId" value="113135397"/>
        </lane>
        <lane id="-113135397#7_1" index="1" disallow="tram rail_urban rail rail_electric rail_fast ship" speed="13.89" length="43.45" shape="5222.52,4216.69 5195.31,4208.05">
            <param key="origId" value="113135397"/>
        </lane>
    </edge>
    <edge id="-113135397#8" from="cluster_3260549207_566130878" to="3260549206" name="ถนนอ่อนนุช" priority="11" type="highway.secondary" shape="5258.46,4230.27 5229.25,4220.51">
        <lane id="-113135397#8_0" index="0" disallow="tram rail_urban rail rail_electric rail_fast ship" speed="13.89" length="36.71" shape="5253.38,4223.51 5237.35,4218.15">
            <param key="origId" value="113135397"/>
        </lane>
        <lane id="-113135397#8_1" index="1" disallow="tram rail_urban rail rail_electric rail_fast ship" speed="13.89" length="36.71" shape="5252.37,4226.55 5236.33,4221.19">
            <param key="origId" value="113135397"/>
        </lane>
        <param key="origFrom" value="566130878"/>
    </edge>
    <edge id="-113135405#0" from="5858830959" to="1283869622" name="On Nut Soi 12" priority="3" type="highway.residential">
        <lane id="-113135405#0_0" index="0" disallow="tram rail_urban rail rail_electric rail_fast ship" speed="13.89" length="67.61" shape="5721.22,4054.94 5724.56,4102.81">
            <param key="origId" value="113135405"/>
        </lane>
    </edge>
    <edge id="-113135405#3" from="1283869382" to="5858830959" name="On Nut Soi 12" priority="3" type="highway.residential" shape="5748.16,3549.58 5713.05,3706.23 5704.40,3788.82 5704.39,3823.63 5716.15,3965.78 5720.04,4022.17 5722.31,4047.55">
        <lane id="-113135405#3_0" index="0" disallow="tram rail_urban rail rail_electric rail_fast ship" speed="13.89" length="503.03" shape="5746.60,3549.23 5711.47,3705.97 5702.80,3788.74 5702.79,3823.70 5714.55,3965.90 5718.44,4022.30 5720.08,4040.55">
            <param key="origId" value="113135405"/>
        </lane>
    </edge>
    <edge id="-113135441" from="1283869419" to="566114172" priority="3" type="highway.residential">
        <lane id="-113135441_0" index="0" disallow="tram rail_urban rail rail_electric rail_fast ship" speed="13.89" length="180.13" shape="5599.60,3540.65 5577.43,3711.50">
            <param key="origId" value="113135441"/>
        </lane>
    </edge>
    <edge id="-113135474#1" from="1283869282" to="1283869267" name="ซอยสวลี" priority="3" type="highway.residential" shape="5260.53,3418.50 5229.58,3479.81 5076.71,3408.86 5041.79,3503.70 5039.94,3508.71">
        <lane id="-113135474#1_0" index="0" disallow="tram rail_urban rail rail_electric rail_fast ship" speed="13.89" length="343.62" shape="5259.10,3417.78 5228.85,3477.71 5075.81,3406.68 5041.01,3501.17">
            <param key="origId" value="113135474"/>
        </lane>
    </edge>
    <edge id="-113135484#0" from="5094307711" to="1283869392" priority="3" type="highway.residential">
        <lane id="-113135484#0_0" index="0" disallow="tram rail_urban rail rail_electric rail_fast ship" speed="13.89" length="19.79" shape="4967.69,3936.71 4978.16,3943.37">
            <param key="origId" value="113135484"/>
        </lane>
    </edge>
    <edge id="-113135484#1" from="1283869112" to="5094307711" priority="3" type="highway.residential">
        <lane id="-113135484#1_0" index="0" disallow="tram rail_urban rail rail_electric rail_fast ship" speed="13.89" length="61.74" shape="4915.45,3903.50 4955.53,3928.98">
            <param key="origId" value="113135484"/>
        </lane>
    </edge>
    <edge id="-113135484#2" from="1283869401" to="1283869112" priority="3" type="highway.residential">
        <lane id="-113135484#2_0" index="0" disallow="tram rail_urban rail rail_electric rail_fast ship" speed="13.89" length="79.73" shape="4842.09,3856.84 4903.30,3895.77">
            <param key="origId" value="113135484"/>
        </lane>
    </edge>
    <edge id="-113514031" from="1286878087" to="1286878676" name="On Nut Soi 9" priority="3" type="highway.residential">
        <lane id="-113514031_0" index="0" disallow="tram rail_urban rail rail_electric rail_fast ship" speed="13.89" length="126.73" shape="5452.93,4373.68 5479.42,4265.78">
            <param key="origId" value="113514031"/>
        </lane>
    </edge>
    <edge id="-113514038#0" from="4415656362" to="1286879088" priority="3" type="highway.residential">
        <lane id="-113514038#0_0" index="0" disallow="tram rail_urban rail rail_electric rail_fast ship" speed="13.89" length="40.70" shape="5642.34,4321.11 5616.16,4323.22">
            <param key="origId" value="113514038"/>
        </lane>
    </edge>
    <edge id="-113514038#1" from="1286879110" to="4415656362" priority="3" type="highway.residential">
        <lane id="-113514038#1_0" index="0" disallow="tram rail_urban rail rail_electric rail_fast ship" speed="13.89" length="52.85" shape="5694.91,4316.86 5656.70,4319.95">
            <param key="origId" value="113514038"/>
        </lane>
    </edge>
    <edge id="-113514044" from="1286877847" to="1286878541" name="On Nut Soi 7/1" priority="3" type="highway.residential">
        <lane id="-113514044_0" index="0" disallow="tram rail_urban rail rail_electric rail_fast ship" speed="13.89" length="92.29" shape="5409.46,4365.38 5430.25,4290.42">
            <param key="origId" value="113514044"/>
        </lane>
    </edge>
    <edge id="-131467340#1" from="cluster_1446787719_1687555154" to="1446787711" name="ซอยสุขุมวิท 52" priority="3" type="highway.residential" shape="4558.40,3292.55 4518.07,3274.18 4481.05,3257.33">
        <lane id="-131467340#1_0" index="0" disallow="tram rail_urban rail rail_electric rail_fast ship" speed="16.67" length="95.95" shape="4552.47,3288.09 4518.73,3272.72 4481.71,3255.87">
            <param key="origId" value="131467340"/>
        </lane>
        <param key="origFrom" value="1446787719"/>
    </edge>
    <edge id="-131467340#9" from="cluster_1446787715_1688188435" to="cluster_1446787719_1687555154" name="ซอยสุขุมวิท 52" priority="3" type="highway.residential" shape="4765.85,3378.90 4760.40,3376.64 4714.48,3357.36 4707.17,3354.55 4658.18,3334.39 4609.45,3314.40 4585.17,3304.44 4578.33,3301.63">
        <lane id="-131467340#9_0" index="0" disallow="tram rail_urban rail rail_electric rail_fast ship" speed="16.67" length="224.73" shape="4758.17,3373.97 4715.08,3355.88 4707.76,3353.06 4658.79,3332.91 4610.06,3312.92 4586.75,3303.36">
            <param key="origId" value="131467340"/>
        </lane>
        <param key="origFrom" value="1446787715"/>
        <param key="origTo" value="1687555154"/>
    </edge>
    <edge id="-131467341#1" from="cluster_1283869058_7694603567" to="cluster_1446787719_1687555154" name="Soi 11 Alley" priority="3" type="highway.residential" shape="4470.60,3513.27 4511.85,3391.17 4527.49,3358.05 4558.40,3292.55">
        <lane id="-131467341#1_0" index="0" disallow="tram rail_urban rail rail_electric rail_fast ship" speed="16.67" length="251.79" shape="4474.65,3506.28 4513.34,3391.77 4528.94,3358.73 4556.49,3300.35">
            <param key="origId" value="131467341"/>
        </lane>
        <param key="origFrom" value="1283869058"/>
        <param key="origTo" value="1446787719"/>
    </edge>
    <edge id="-156261464#0" from="1687555149" to="567147392" name="ซอยสุขุมวิท 50" priority="10" type="highway.tertiary" shape="3662.26,3236.74 3642.35,3228.07 3624.95,3219.92 3554.43,3186.90 3548.85,3183.96 3486.58,3153.61 3421.12,3121.71">
        <lane id="-156261464#0_0" index="0" disallow="tram rail_urban rail rail_electric rail_fast ship" speed="22.22" length="267.20" shape="3656.56,3232.51 3643.01,3226.61 3625.63,3218.47 3555.14,3185.47 3549.57,3182.53 3487.28,3152.17 3429.48,3124.00">
            <param key="origId" value="156261464"/>
        </lane>
    </edge>
    <edge id="-156261464#1" from="1686126813" to="1687555149" name="ซอยสุขุมวิท 50" priority="10" type="highway.tertiary" shape="3865.13,3305.88 3708.62,3252.08 3662.26,3236.74">
        <lane id="-156261464#1_0" index="0" disallow="tram rail_urban rail rail_electric rail_fast ship" speed="22.22" length="214.33" shape="3858.45,3301.89 3709.13,3250.56 3669.58,3237.48">
            <param key="origId" value="156261464"/>
        </lane>
    </edge>
    <edge id="-156261464#10" from="cluster_1686126819_1687321701" to="cluster_1685223036_1686126817" name="ซอยสุขุมวิท 50" priority="10" type="highway.tertiary" shape="4237.64,3422.83 4184.48,3406.51">
        <lane id="-156261464#10_0" index="0" disallow="tram rail_urban rail rail_electric rail_fast ship" speed="22.22" length="74.85" shape="4230.08,3418.83 4192.67,3407.35">
            <param key="origId" value="156261464"/>
        </lane>
        <param key="origFrom" value="1686126819"/>
        <param key="origTo" value="1685223036"/>
    </edge>
    <edge id="-156261464#13" from="cluster_1687321702_7694603560" to="cluster_1686126819_1687321701" name="ซอยสุขุมวิท 50" priority="10" type="highway.tertiary" shape="4342.95,3455.83 4326.42,3450.63 4256.58,3428.64">
        <lane id="-156261464#13_0" index="0" disallow="tram rail_urban rail rail_electric rail_fast ship" speed="22.22" length="106.07" shape="4343.43,3454.30 4326.90,3449.10 4264.76,3429.54">
            <param key="origId" value="156261464"/>
        </lane>
        <param key="origFrom" value="7694603560"/>
        <param key="origTo" value="1687321701"/>
    </edge>
    <edge id="-156261464#2" from="567147397" to="1686126813" name="ซอยสุขุมวิท 50" priority="10" type="highway.tertiary">
        <lane id="-156261464#2_0" index="0" disallow="tram rail_urban rail rail_electric rail_fast ship" speed="22.22" length="87.57" shape="3941.83,3327.97 3872.05,3306.35">
            <param key="origId" value="156261464"/>
        </lane>
    </edge>
    <edge id="-156261464#3" from="cluster_1686126814_1687555161" to="567147397" name="ซอยสุขุมวิท 50" priority="10" type="highway.tertiary" shape="4016.86,3352.93 3948.78,3331.80">
        <lane id="-156261464#3_0" index="0" disallow="tram rail_urban rail rail_electric rail_fast ship" speed="22.22" length="74.11" shape="4010.82,3349.38 3956.61,3332.55">
            <param key="origId" value="156261464"/>
        </lane>
        <param key="origFrom" value="1687555161"/>
    </edge>
    <edge id="-156261464#6" from="cluster_1685223035_1686126815" to="cluster_1686126814_1687555161" name="ซอยสุขุมวิท 50" priority="10" type="highway.tertiary" shape="4083.01,3374.32 4062.10,3367.61 4022.19,3354.80">
        <lane id="-156261464#6_0" index="0" disallow="tram rail_urban rail rail_electric rail_fast ship" speed="22.22" length="78.38" shape="4077.15,3370.76 4062.59,3366.09 4029.39,3355.43">
            <param key="origId" value="156261464"/>
        </lane>
        <param key="origFrom" value="1685223035"/>
        <param key="origTo" value="1686126814"/>
    </edge>
    <edge id="-156261464#8" from="cluster_1685223036_1686126817" to="cluster_1685223035_1686126815" name="ซอยสุขุมวิท 50" priority="10" type="highway.tertiary" shape="4166.52,3401.44 4105.12,3381.90">
        <lane id="-156261464#8_0" index="0" disallow="tram rail_urban rail rail_electric rail_fast ship" speed="22.22" length="85.46" shape="4159.68,3397.58 4112.07,3382.43">
            <param key="origId" value="156261464"/>
        </lane>
        <param key="origFrom" value="1686126817"/>
        <param key="origTo" value="1686126815"/>
    </edge>