<?xml version="1.0" encoding="UTF-8"?>

<!-- generated on 06/22/20 15:09:02 by Eclipse SUMO netedit Version 1.6.0
<configuration xmlns:xsi="http://www.w3.org/2001/XMLSchema-instance" xsi:noNamespaceSchemaLocation="http://sumo.dlr.de/xsd/netconvertConfiguration.xsd">

    <input>
        <sumo-net-file value="C:\Program%20Files%20(x86)\Eclipse\Sumo\Name_Rama4_Sukhumvit_Sen.net.xml"/>
    </input>

    <output>
        <output-file value="C:\Program%20Files%20(x86)\Eclipse\Sumo\Name_Rama4_Sukhumvit_Sen.net.xml"/>
    </output>

    <processing>
        <geometry.min-radius.fix.railways value="false"/>
        <geometry.max-grade.fix value="false"/>
        <offset.disable-normalization value="true"/>
        <lefthand value="true"/>
    </processing>

    <junctions>
        <no-turnarounds value="true"/>
        <junctions.corner-detail value="5"/>
        <junctions.limit-turn-speed value="5.5"/>
        <rectangular-lane-cut value="false"/>
    </junctions>

    <pedestrian>
        <walkingareas value="false"/>
    </pedestrian>

    <report>
        <aggregate-warnings value="5"/>
    </report>

</configuration>
-->

<net version="1.6" junctionCornerDetail="5" lefthand="true" limitTurnSpeed="5.50" xmlns:xsi="http://www.w3.org/2001/XMLSchema-instance" xsi:noNamespaceSchemaLocation="http://sumo.dlr.de/xsd/net_file.xsd">

    <location netOffset="0.00,0.00" convBoundary="11596.54,4301.76,13300.77,5909.90" origBoundary="-10000000000.00,-10000000000.00,10000000000.00,10000000000.00" projParameter="!"/>

    <edge id=":Cluster_N12_Suk49_C3_Q3_Suk32_0" function="internal">
        <lane id=":Cluster_N12_Suk49_C3_Q3_Suk32_0_0" index="0" speed="12.78" length="38.09" shape="12216.81,5855.08 12214.93,5859.16 12216.57,5866.11 12221.73,5875.93 12230.41,5888.61"/>
    </edge>
    <edge id=":Cluster_N12_Suk49_C3_Q3_Suk32_1" function="internal">
        <lane id=":Cluster_N12_Suk49_C3_Q3_Suk32_1_0" index="0" speed="7.14" length="24.35" shape="12220.58,5860.25 12217.99,5867.30 12218.76,5871.90 12222.90,5874.04 12230.41,5873.72"/>
    </edge>
    <edge id=":Cluster_N12_Suk49_C3_Q3_Suk32_2" function="internal">
        <lane id=":Cluster_N12_Suk49_C3_Q3_Suk32_2_0" index="0" speed="6.49" length="9.03" shape="12232.98,5886.71 12231.81,5884.53 12231.62,5882.50 12232.41,5880.62 12234.18,5878.89"/>
    </edge>
    <edge id=":Cluster_N12_Suk49_C3_Q3_Suk32_3" function="internal">
        <lane id=":Cluster_N12_Suk49_C3_Q3_Suk32_3_0" index="0" speed="7.31" length="11.74" shape="12232.98,5886.71 12230.98,5883.40 12230.19,5880.57 12230.63,5878.20 12232.30,5876.31"/>
    </edge>
    <edge id=":Cluster_N12_Suk49_C3_Q3_Suk32_4" function="internal">
        <lane id=":Cluster_N12_Suk49_C3_Q3_Suk32_4_0" index="0" speed="8.09" length="14.59" shape="12232.98,5886.71 12230.15,5882.28 12228.77,5878.64 12228.86,5875.78 12230.41,5873.72"/>
    </edge>
    <edge id=":Cluster_N17_C3_Suk40_Q8_0" function="internal">
        <lane id=":Cluster_N17_C3_Suk40_Q8_0_0" index="0" speed="5.57" length="9.36" shape="12833.46,5407.61 12830.96,5409.01 12829.16,5408.99 12828.07,5407.55 12827.69,5404.70"/>
    </edge>
    <edge id=":Cluster_N17_C3_Suk40_Q8_1" function="internal">
        <lane id=":Cluster_N17_C3_Suk40_Q8_1_0" index="0" speed="6.54" length="13.51" shape="12833.46,5407.61 12829.57,5409.89 12826.78,5410.18 12825.08,5408.45 12824.49,5404.73"/>
    </edge>
    <edge id=":Cluster_N17_C3_Suk40_Q8_2" function="internal">
        <lane id=":Cluster_N17_C3_Suk40_Q8_2_0" index="0" speed="13.89" length="23.76" shape="12833.46,5407.61 12814.52,5421.63"/>
        <lane id=":Cluster_N17_C3_Suk40_Q8_2_1" index="1" speed="13.89" length="23.76" shape="12835.31,5410.22 12829.38,5413.99 12824.91,5415.92 12820.44,5417.86 12814.52,5421.63"/>
        <lane id=":Cluster_N17_C3_Suk40_Q8_2_2" index="2" speed="13.89" length="23.76" shape="12835.31,5410.22 12816.43,5424.20"/>
        <lane id=":Cluster_N17_C3_Suk40_Q8_2_3" index="3" speed="13.89" length="23.76" shape="12835.31,5410.22 12829.98,5414.79 12826.82,5418.49 12823.66,5422.19 12818.34,5426.77"/>
        <lane id=":Cluster_N17_C3_Suk40_Q8_2_4" index="4" speed="13.89" length="23.76" shape="12837.16,5412.84 12830.87,5416.24 12825.83,5417.23 12820.80,5418.22 12814.52,5421.63"/>
        <lane id=":Cluster_N17_C3_Suk40_Q8_2_5" index="5" speed="13.89" length="23.76" shape="12837.16,5412.84 12831.25,5416.59 12826.79,5418.51 12822.34,5420.44 12816.43,5424.20"/>
        <lane id=":Cluster_N17_C3_Suk40_Q8_2_6" index="6" speed="13.89" length="23.76" shape="12837.16,5412.84 12818.34,5426.77"/>
    </edge>
    <edge id=":Cluster_N17_C3_Suk40_Q8_9" function="internal">
        <lane id=":Cluster_N17_C3_Suk40_Q8_9_0" index="0" speed="13.89" length="23.28" shape="12830.31,5442.87 12848.97,5429.55"/>
        <lane id=":Cluster_N17_C3_Suk40_Q8_9_1" index="1" speed="13.89" length="23.28" shape="12830.31,5442.87 12835.52,5438.40 12838.65,5434.81 12841.82,5431.27 12847.13,5426.94"/>
        <lane id=":Cluster_N17_C3_Suk40_Q8_9_2" index="2" speed="13.89" length="23.28" shape="12830.31,5442.87 12835.31,5437.93 12837.73,5433.50 12840.18,5429.12 12845.28,5424.32"/>
        <lane id=":Cluster_N17_C3_Suk40_Q8_9_3" index="3" speed="13.89" length="23.28" shape="12828.40,5440.30 12834.21,5436.63 12838.62,5434.83 12843.07,5433.08 12848.97,5429.55"/>
        <lane id=":Cluster_N17_C3_Suk40_Q8_9_4" index="4" speed="13.89" length="23.28" shape="12828.40,5440.30 12847.13,5426.94"/>
        <lane id=":Cluster_N17_C3_Suk40_Q8_9_5" index="5" speed="13.89" length="23.28" shape="12828.40,5440.30 12833.63,5435.81 12836.77,5432.22 12839.95,5428.67 12845.28,5424.32"/>
        <lane id=":Cluster_N17_C3_Suk40_Q8_9_6" index="6" speed="13.89" length="23.28" shape="12826.49,5437.73 12845.28,5424.32"/>
    </edge>
    <edge id=":Cluster_N17_C3_Suk40_Q8_16" function="internal">
        <lane id=":Cluster_N17_C3_Suk40_Q8_16_0" index="0" speed="13.89" length="15.97" shape="12826.49,5437.73 12827.13,5435.25 12827.54,5428.91 12827.67,5421.86"/>
    </edge>
    <edge id=":Cluster_N17_C3_Suk40_Q8_17" function="internal">
        <lane id=":Cluster_N17_C3_Suk40_Q8_17_0" index="0" speed="13.89" length="14.03" shape="12826.49,5437.73 12825.74,5436.14 12825.15,5430.11 12824.90,5423.90"/>
    </edge>
    <edge id=":Cluster_N17_C3_Suk40_Q8_18" function="internal">
        <lane id=":Cluster_N17_C3_Suk40_Q8_18_0" index="0" speed="7.77" length="16.77" shape="12826.49,5437.73 12829.54,5429.22 12828.56,5423.70 12826.55,5422.68"/>
        <lane id=":Cluster_N17_C3_Suk40_Q8_18_1" index="1" speed="7.17" length="16.77" shape="12826.49,5437.73 12829.05,5430.58 12828.23,5425.94 12824.62,5424.11"/>
        <lane id=":Cluster_N17_C3_Suk40_Q8_18_2" index="2" speed="6.52" length="16.77" shape="12826.49,5437.73 12828.56,5431.93 12827.90,5428.17 12824.49,5426.45 12821.23,5426.62"/>
    </edge>
    <edge id=":Cluster_N17_C3_Suk40_Q8_21" function="internal">
        <lane id=":Cluster_N17_C3_Suk40_Q8_21_0" index="0" speed="13.89" length="17.16" shape="12827.67,5421.86 12827.72,5418.73 12827.69,5404.70"/>
    </edge>
    <edge id=":Cluster_N17_C3_Suk40_Q8_22" function="internal">
        <lane id=":Cluster_N17_C3_Suk40_Q8_22_0" index="0" speed="13.89" length="19.18" shape="12824.90,5423.90 12824.73,5419.64 12824.49,5404.73"/>
    </edge>
    <edge id=":Cluster_N17_C3_Suk40_Q8_23" function="internal">
        <lane id=":Cluster_N17_C3_Suk40_Q8_23_0" index="0" speed="7.77" length="12.40" shape="12826.55,5422.68 12823.55,5421.17 12814.52,5421.63"/>
    </edge>
    <edge id=":Cluster_N17_C3_Suk40_Q8_24" function="internal">
        <lane id=":Cluster_N17_C3_Suk40_Q8_24_0" index="0" speed="7.17" length="8.27" shape="12824.62,5424.11 12824.02,5423.81 12816.43,5424.20"/>
    </edge>
    <edge id=":Cluster_N17_C3_Suk40_Q8_25" function="internal">
        <lane id=":Cluster_N17_C3_Suk40_Q8_25_0" index="0" speed="6.52" length="2.89" shape="12821.23,5426.62 12818.34,5426.77"/>
    </edge>
    <edge id=":Cluster_Sen_17_13_0" function="internal">
        <lane id=":Cluster_Sen_17_13_0_0" index="0" speed="13.89" length="14.80" shape="12467.37,4557.35 12453.86,4563.36"/>
        <lane id=":Cluster_Sen_17_13_0_1" index="1" speed="13.89" length="14.80" shape="12468.67,4560.28 12455.14,4566.29"/>
        <lane id=":Cluster_Sen_17_13_0_2" index="2" speed="13.89" length="14.80" shape="12469.97,4563.20 12456.42,4569.23"/>
    </edge>
    <edge id=":Cluster_Sen_17_13_3" function="internal">
        <lane id=":Cluster_Sen_17_13_3_0" index="0" speed="11.46" length="5.76" shape="12469.97,4563.20 12468.50,4565.08 12467.73,4568.36"/>
    </edge>
    <edge id=":Cluster_Sen_17_13_14" function="internal">
        <lane id=":Cluster_Sen_17_13_14_0" index="0" speed="11.46" length="15.50" shape="12467.73,4568.36 12467.54,4569.14 12467.11,4575.39 12467.20,4583.83"/>
    </edge>
    <edge id=":Cluster_Sen_17_13_4" function="internal">
        <lane id=":Cluster_Sen_17_13_4_0" index="0" speed="8.46" length="11.33" shape="12470.40,4583.71 12470.56,4580.23 12471.35,4577.45 12472.75,4575.36 12474.76,4573.98"/>
    </edge>
    <edge id=":Cluster_Sen_17_13_5" function="internal">
        <lane id=":Cluster_Sen_17_13_5_0" index="0" speed="9.21" length="13.54" shape="12470.40,4583.71 12470.44,4578.75 12470.96,4574.99 12471.97,4572.43 12473.46,4571.06"/>
    </edge>
    <edge id=":Cluster_Sen_17_13_6" function="internal">
        <lane id=":Cluster_Sen_17_13_6_0" index="0" speed="9.96" length="15.96" shape="12470.40,4583.71 12470.31,4577.28 12470.57,4572.54 12471.19,4569.49 12472.16,4568.13"/>
    </edge>
    <edge id=":Cluster_Sen_17_13_7" function="internal">
        <lane id=":Cluster_Sen_17_13_7_0" index="0" speed="10.53" length="32.59" shape="12470.40,4583.71 12469.41,4573.59 12466.79,4565.95 12461.84,4562.10 12453.86,4563.36"/>
    </edge>
    <edge id=":Cluster_Sen_17_13_8" function="internal">
        <lane id=":Cluster_Sen_17_13_8_0" index="0" speed="9.94" length="28.95" shape="12470.40,4583.71 12469.47,4574.84 12467.01,4568.25 12462.43,4565.03 12455.14,4566.29"/>
    </edge>
    <edge id=":Cluster_Sen_17_13_9" function="internal">
        <lane id=":Cluster_Sen_17_13_9_0" index="0" speed="9.30" length="25.17" shape="12470.40,4583.71 12469.48,4576.11 12467.10,4570.60 12462.87,4568.03 12456.42,4569.23"/>
    </edge>
    <edge id=":Cluster_Sen_17_13_10" function="internal">
        <lane id=":Cluster_Sen_17_13_10_0" index="0" speed="5.83" length="9.12" shape="12461.16,4580.06 12463.72,4579.32 12465.57,4579.70 12466.73,4581.20 12467.20,4583.83"/>
    </edge>
    <edge id=":Cluster_Sen_17_13_11" function="internal">
        <lane id=":Cluster_Sen_17_13_11_0" index="0" speed="13.89" length="14.87" shape="12461.16,4580.06 12474.76,4573.98"/>
        <lane id=":Cluster_Sen_17_13_11_1" index="1" speed="13.89" length="14.87" shape="12459.88,4577.13 12473.46,4571.06"/>
        <lane id=":Cluster_Sen_17_13_11_2" index="2" speed="13.89" length="14.87" shape="12458.60,4574.19 12472.16,4568.13"/>
    </edge>
    <edge id=":Cluster_Sen_17_3_2_0" function="internal">
        <lane id=":Cluster_Sen_17_3_2_0_0" index="0" speed="7.28" length="10.81" shape="11615.62,4934.20 11612.40,4935.27 11609.72,4935.36 11607.60,4934.48 11606.03,4932.61"/>
    </edge>
    <edge id=":Cluster_Sen_17_3_2_1" function="internal">
        <lane id=":Cluster_Sen_17_3_2_1_0" index="0" speed="11.01" length="27.30" shape="11616.93,4937.13 11612.86,4940.41 11611.14,4945.60 11611.78,4952.70 11614.77,4961.70"/>
    </edge>
    <edge id=":Cluster_Sen_17_3_2_2" function="internal">
        <lane id=":Cluster_Sen_17_3_2_2_0" index="0" speed="3.74" length="5.03" shape="11619.54,4942.97 11618.71,4944.28 11618.67,4945.24 11619.41,4945.85 11620.94,4946.11"/>
    </edge>
    <edge id=":Cluster_Sen_17_3_2_3" function="internal">
        <lane id=":Cluster_Sen_17_3_2_3_0" index="0" speed="6.51" length="8.87" shape="11620.67,4959.23 11620.06,4956.88 11620.34,4954.89 11621.50,4953.25 11623.55,4951.95"/>
    </edge>
    <edge id=":Cluster_Sen_17_3_2_4" function="internal">
        <lane id=":Cluster_Sen_17_3_2_4_0" index="0" speed="8.01" length="13.94" shape="11617.72,4960.46 11616.76,4956.78 11617.19,4953.64 11619.02,4951.06 11622.25,4949.03"/>
    </edge>
    <edge id=":Cluster_Sen_17_3_2_5" function="internal">
        <lane id=":Cluster_Sen_17_3_2_5_0" index="0" speed="13.89" length="30.21" shape="11617.72,4960.46 11614.60,4952.83 11611.33,4944.72 11608.33,4937.51 11606.03,4932.61"/>
    </edge>
    <edge id=":Cluster_Sen_17_3_2_6" function="internal">
        <lane id=":Cluster_Sen_17_3_2_6_0" index="0" speed="13.89" length="30.05" shape="11603.22,4934.16 11605.04,4939.21 11606.98,4946.73 11609.18,4955.16 11611.81,4962.93"/>
    </edge>
    <edge id=":Cluster_Sen_17_3_2_7" function="internal">
        <lane id=":Cluster_Sen_17_3_2_7_0" index="0" speed="11.04" length="26.17" shape="11603.22,4934.16 11608.30,4942.12 11613.16,4947.25 11617.81,4949.56 11622.25,4949.03"/>
    </edge>
    <edge id=":Cluster_Sen_17_3_2_8" function="internal">
        <lane id=":Cluster_Sen_17_3_2_8_0" index="0" speed="10.47" length="23.44" shape="11603.22,4934.16 11607.63,4940.88 11612.06,4945.12 11616.49,4946.86 11620.94,4946.11"/>
    </edge>
    <edge id=":Cluster_Sen_17_9_0" function="internal">
        <lane id=":Cluster_Sen_17_9_0_0" index="0" speed="13.89" length="8.31" shape="12134.20,4704.23 12126.90,4707.42"/>
        <lane id=":Cluster_Sen_17_9_0_1" index="1" speed="13.89" length="8.31" shape="12135.50,4707.16 12133.05,4707.69 12131.20,4707.29 12129.35,4706.89 12126.90,4707.42"/>
        <lane id=":Cluster_Sen_17_9_0_2" index="2" speed="13.89" length="8.31" shape="12135.50,4707.16 12128.19,4710.35"/>
        <lane id=":Cluster_Sen_17_9_0_3" index="3" speed="13.89" length="8.31" shape="12136.80,4710.08 12134.34,4710.62 12132.49,4710.22 12130.64,4709.82 12128.19,4710.35"/>
        <lane id=":Cluster_Sen_17_9_0_4" index="4" speed="13.89" length="8.31" shape="12136.80,4710.08 12129.47,4713.28"/>
    </edge>
    <edge id=":Cluster_Sen_17_9_5" function="internal">
        <lane id=":Cluster_Sen_17_9_5_0" index="0" speed="3.74" length="2.64" shape="12138.09,4713.01 12137.26,4714.32 12137.22,4715.27 12137.32,4715.36"/>
    </edge>
    <edge id=":Cluster_Sen_17_9_12" function="internal">
        <lane id=":Cluster_Sen_17_9_12_0" index="0" speed="3.74" length="2.38" shape="12137.32,4715.36 12137.96,4715.89 12139.48,4716.15"/>
    </edge>
    <edge id=":Cluster_Sen_17_9_6" function="internal">
        <lane id=":Cluster_Sen_17_9_6_0" index="0" speed="13.89" length="8.34" shape="12134.73,4725.26 12142.07,4722.00"/>
        <lane id=":Cluster_Sen_17_9_6_1" index="1" speed="13.89" length="8.34" shape="12133.45,4722.33 12135.91,4721.79 12137.76,4722.17 12139.62,4722.55 12142.07,4722.00"/>
        <lane id=":Cluster_Sen_17_9_6_2" index="2" speed="13.89" length="8.34" shape="12133.45,4722.33 12140.78,4719.08"/>
        <lane id=":Cluster_Sen_17_9_6_3" index="3" speed="13.89" length="8.34" shape="12132.16,4719.40 12134.62,4718.86 12136.47,4719.24 12138.32,4719.62 12140.78,4719.08"/>
        <lane id=":Cluster_Sen_17_9_6_4" index="4" speed="13.89" length="8.34" shape="12132.16,4719.40 12139.48,4716.15"/>
    </edge>
    <edge id=":Cluster_Sen_17_9_11" function="internal">
        <lane id=":Cluster_Sen_17_9_11_0" index="0" speed="3.76" length="2.70" shape="12130.87,4716.47 12131.72,4715.14 12131.77,4714.17 12131.65,4714.07"/>
    </edge>
    <edge id=":Cluster_Sen_17_9_13" function="internal">
        <lane id=":Cluster_Sen_17_9_13_0" index="0" speed="3.76" length="2.39" shape="12131.65,4714.07 12131.02,4713.55 12129.47,4713.28"/>
    </edge>
    <edge id=":Cluster_Sen_BKT_0" function="internal">
        <lane id=":Cluster_Sen_BKT_0_0" index="0" speed="11.04" length="17.46" shape="12816.29,4394.60 12815.38,4398.20 12813.21,4401.45 12809.77,4404.34 12805.07,4406.89"/>
    </edge>
    <edge id=":Cluster_Sen_BKT_1" function="internal">
        <lane id=":Cluster_Sen_BKT_1_0" index="0" speed="9.43" length="26.41" shape="12816.29,4394.60 12816.40,4402.63 12818.31,4408.68 12822.46,4411.82 12829.26,4411.15"/>
    </edge>
    <edge id=":Cluster_Sen_BKT_2" function="internal">
        <lane id=":Cluster_Sen_BKT_2_0" index="0" speed="5.81" length="9.15" shape="12825.09,4399.16 12822.46,4399.67 12820.65,4399.12 12819.66,4397.50 12819.48,4394.83"/>
    </edge>
    <edge id=":Cluster_Sen_BKT_3" function="internal">
        <lane id=":Cluster_Sen_BKT_3_0" index="0" speed="13.89" length="21.62" shape="12825.09,4399.16 12819.06,4401.22 12814.95,4402.69 12810.91,4404.33 12805.07,4406.89"/>
        <lane id=":Cluster_Sen_BKT_3_1" index="1" speed="13.89" length="21.62" shape="12825.09,4399.16 12819.25,4401.68 12815.60,4404.15 12812.02,4406.79 12806.37,4409.81"/>
        <lane id=":Cluster_Sen_BKT_3_2" index="2" speed="13.89" length="21.62" shape="12825.09,4399.16 12819.38,4402.16 12816.25,4405.61 12813.18,4409.23 12807.67,4412.74"/>
        <lane id=":Cluster_Sen_BKT_3_3" index="3" speed="13.89" length="21.62" shape="12826.14,4402.18 12819.93,4403.77 12815.48,4404.20 12811.09,4404.79 12805.07,4406.89"/>
        <lane id=":Cluster_Sen_BKT_3_4" index="4" speed="13.89" length="21.62" shape="12826.14,4402.18 12820.19,4404.21 12816.13,4405.67 12812.14,4407.29 12806.37,4409.81"/>
        <lane id=":Cluster_Sen_BKT_3_5" index="5" speed="13.89" length="21.62" shape="12826.14,4402.18 12820.38,4404.67 12816.78,4407.13 12813.24,4409.75 12807.67,4412.74"/>
        <lane id=":Cluster_Sen_BKT_3_6" index="6" speed="13.89" length="21.62" shape="12827.19,4405.21 12820.73,4406.35 12816.00,4405.70 12811.33,4405.23 12805.07,4406.89"/>
        <lane id=":Cluster_Sen_BKT_3_7" index="7" speed="13.89" length="21.62" shape="12827.19,4405.21 12821.05,4406.77 12816.65,4407.18 12812.32,4407.75 12806.37,4409.81"/>
        <lane id=":Cluster_Sen_BKT_3_8" index="8" speed="13.89" length="21.62" shape="12827.19,4405.21 12821.31,4407.21 12817.30,4408.65 12813.36,4410.24 12807.67,4412.74"/>
    </edge>
    <edge id=":Cluster_Sen_BKT_12" function="internal">
        <lane id=":Cluster_Sen_BKT_12_0" index="0" speed="9.57" length="15.51" shape="12821.94,4428.16 12822.52,4424.59 12824.28,4421.58 12827.23,4419.11 12831.36,4417.19"/>
    </edge>
    <edge id=":Cluster_Sen_BKT_13" function="internal">
        <lane id=":Cluster_Sen_BKT_13_0" index="0" speed="10.14" length="17.50" shape="12821.94,4428.16 12822.45,4423.14 12824.01,4419.13 12826.63,4416.14 12830.31,4414.17"/>
    </edge>
    <edge id=":Cluster_Sen_BKT_14" function="internal">
        <lane id=":Cluster_Sen_BKT_14_0" index="0" speed="10.73" length="19.68" shape="12821.94,4428.16 12822.37,4421.68 12823.74,4416.68 12826.04,4413.17 12829.26,4411.15"/>
    </edge>
    <edge id=":Cluster_Sen_BKT_15" function="internal">
        <lane id=":Cluster_Sen_BKT_15_0" index="0" speed="13.89" length="33.42" shape="12821.94,4428.16 12819.48,4394.83"/>
    </edge>
    <edge id=":Cluster_Sen_BKT_16" function="internal">
        <lane id=":Cluster_Sen_BKT_16_0" index="0" speed="10.16" length="30.96" shape="12818.74,4428.17 12818.17,4418.21 12816.13,4410.38 12811.97,4406.12 12805.07,4406.89"/>
    </edge>
    <edge id=":Cluster_Sen_BKT_17" function="internal">
        <lane id=":Cluster_Sen_BKT_17_0" index="0" speed="9.57" length="27.29" shape="12818.74,4428.17 12818.23,4419.48 12816.38,4412.68 12812.62,4409.03 12806.37,4409.81"/>
    </edge>
    <edge id=":Cluster_Sen_BKT_18" function="internal">
        <lane id=":Cluster_Sen_BKT_18_0" index="0" speed="8.93" length="23.62" shape="12818.74,4428.17 12818.28,4420.74 12816.63,4414.97 12813.26,4411.95 12807.67,4412.74"/>
    </edge>
    <edge id=":Cluster_Sen_BKT_19" function="internal">
        <lane id=":Cluster_Sen_BKT_19_0" index="0" speed="13.89" length="20.58" shape="12812.81,4424.32 12831.36,4417.19"/>
        <lane id=":Cluster_Sen_BKT_19_1" index="1" speed="13.89" length="20.58" shape="12812.81,4424.32 12818.11,4421.49 12821.45,4418.97 12824.84,4416.58 12830.31,4414.17"/>
        <lane id=":Cluster_Sen_BKT_19_2" index="2" speed="13.89" length="20.58" shape="12812.81,4424.32 12818.05,4420.96 12820.92,4417.44 12823.84,4414.07 12829.26,4411.15"/>
        <lane id=":Cluster_Sen_BKT_19_3" index="3" speed="13.89" length="20.58" shape="12811.51,4421.40 12817.18,4419.49 12821.32,4419.01 12825.52,4418.68 12831.36,4417.19"/>
        <lane id=":Cluster_Sen_BKT_19_4" index="4" speed="13.89" length="20.58" shape="12811.51,4421.40 12830.31,4414.17"/>
        <lane id=":Cluster_Sen_BKT_19_5" index="5" speed="13.89" length="20.58" shape="12811.51,4421.40 12816.88,4418.53 12820.27,4415.99 12823.72,4413.59 12829.26,4411.15"/>
        <lane id=":Cluster_Sen_BKT_19_6" index="6" speed="13.89" length="20.58" shape="12810.21,4418.47 12816.20,4416.97 12820.67,4417.54 12825.20,4418.26 12831.36,4417.19"/>
        <lane id=":Cluster_Sen_BKT_19_7" index="7" speed="13.89" length="20.58" shape="12810.21,4418.47 12815.96,4416.53 12820.15,4416.04 12824.40,4415.68 12830.31,4414.17"/>
        <lane id=":Cluster_Sen_BKT_19_8" index="8" speed="13.89" length="20.58" shape="12810.21,4418.47 12829.26,4411.15"/>
    </edge>
    <edge id=":Cluster_Sen_BKT_28" function="internal">
        <lane id=":Cluster_Sen_BKT_28_0" index="0" speed="13.45" length="10.16" shape="12810.21,4418.47 12813.71,4415.72 12816.42,4410.86 12816.46,4410.72"/>
    </edge>
    <edge id=":Cluster_Sen_BKT_29" function="internal">
        <lane id=":Cluster_Sen_BKT_29_0" index="0" speed="13.45" length="16.21" shape="12816.46,4410.72 12818.34,4403.90 12819.48,4394.83"/>
    </edge>
    <edge id=":Cluster_Sen_KNT_0" function="internal">
        <lane id=":Cluster_Sen_KNT_0_0" index="0" speed="7.66" length="8.99" shape="13169.45,4356.63 13168.43,4358.75 13166.98,4360.32 13165.10,4361.34 13162.79,4361.80"/>
    </edge>
    <edge id=":Cluster_Sen_KNT_1" function="internal">
        <lane id=":Cluster_Sen_KNT_1_0" index="0" speed="8.43" length="11.05" shape="13169.45,4356.63 13168.03,4360.19 13166.48,4362.76 13164.81,4364.37 13163.02,4364.99"/>
    </edge>
    <edge id=":Cluster_Sen_KNT_2" function="internal">
        <lane id=":Cluster_Sen_KNT_2_0" index="0" speed="9.23" length="13.38" shape="13169.45,4356.63 13167.63,4361.62 13165.99,4365.21 13164.53,4367.40 13163.26,4368.18"/>
    </edge>
    <edge id=":Cluster_Sen_KNT_3" function="internal">
        <lane id=":Cluster_Sen_KNT_3_0" index="0" speed="13.89" length="33.63" shape="13176.47,4354.07 13177.19,4362.14 13177.89,4370.91 13178.76,4379.66 13180.02,4387.64"/>
        <lane id=":Cluster_Sen_KNT_3_1" index="1" speed="13.89" length="33.63" shape="13176.47,4354.07 13177.68,4362.03 13179.45,4370.59 13181.41,4379.12 13183.15,4387.00"/>
        <lane id=":Cluster_Sen_KNT_3_2" index="2" speed="13.89" length="33.63" shape="13179.66,4353.86 13179.89,4361.96 13179.48,4370.81 13179.26,4379.63 13180.02,4387.64"/>
        <lane id=":Cluster_Sen_KNT_3_3" index="3" speed="13.89" length="33.63" shape="13179.66,4353.86 13180.38,4361.86 13181.05,4370.48 13181.91,4379.08 13183.15,4387.00"/>
    </edge>
    <edge id=":Cluster_Sen_KNT_7" function="internal">
        <lane id=":Cluster_Sen_KNT_7_0" index="0" speed="12.35" length="33.16" shape="13179.66,4353.86 13181.75,4364.83 13185.30,4372.61 13190.33,4377.19 13196.82,4378.57"/>
    </edge>
    <edge id=":Cluster_Sen_KNT_8" function="internal">
        <lane id=":Cluster_Sen_KNT_8_0" index="0" speed="11.86" length="30.50" shape="13179.66,4353.86 13181.61,4363.44 13185.11,4370.21 13190.15,4374.19 13196.73,4375.37"/>
    </edge>
    <edge id=":Cluster_Sen_KNT_9" function="internal">
        <lane id=":Cluster_Sen_KNT_9_0" index="0" speed="11.36" length="27.91" shape="13179.66,4353.86 13181.48,4362.04 13184.91,4367.82 13189.96,4371.20 13196.63,4372.18"/>
    </edge>
    <edge id=":Cluster_Sen_KNT_10" function="internal">
        <lane id=":Cluster_Sen_KNT_10_0" index="0" speed="6.53" length="9.00" shape="13196.22,4358.44 13193.78,4358.22 13191.98,4357.27 13190.83,4355.58 13190.32,4353.16"/>
    </edge>
    <edge id=":Cluster_Sen_KNT_11" function="internal">
        <lane id=":Cluster_Sen_KNT_11_0" index="0" speed="7.34" length="11.67" shape="13196.22,4358.44 13192.38,4358.29 13189.58,4357.40 13187.83,4355.76 13187.13,4353.37"/>
    </edge>
    <edge id=":Cluster_Sen_KNT_12" function="internal">
        <lane id=":Cluster_Sen_KNT_12_0" index="0" speed="8.12" length="14.49" shape="13196.22,4358.44 13190.98,4358.37 13187.19,4357.54 13184.84,4355.94 13183.94,4353.58"/>
    </edge>
    <edge id=":Cluster_Sen_KNT_13" function="internal">
        <lane id=":Cluster_Sen_KNT_13_0" index="0" speed="13.89" length="33.56" shape="13196.32,4361.64 13162.79,4361.80"/>
        <lane id=":Cluster_Sen_KNT_13_1" index="1" speed="13.89" length="33.56" shape="13196.32,4361.64 13163.02,4364.99"/>
        <lane id=":Cluster_Sen_KNT_13_2" index="2" speed="13.89" length="33.56" shape="13196.32,4361.64 13186.16,4362.88 13179.09,4364.83 13172.37,4366.82 13163.26,4368.18"/>
        <lane id=":Cluster_Sen_KNT_13_3" index="3" speed="13.89" length="33.56" shape="13196.41,4364.84 13186.15,4364.58 13178.89,4363.24 13171.98,4361.93 13162.79,4361.80"/>
        <lane id=":Cluster_Sen_KNT_13_4" index="4" speed="13.89" length="33.56" shape="13196.41,4364.84 13163.02,4364.99"/>
        <lane id=":Cluster_Sen_KNT_13_5" index="5" speed="13.89" length="33.56" shape="13196.41,4364.84 13163.26,4368.18"/>
    </edge>
    <edge id=":Cluster_Sen_KNT_19" function="internal">
        <lane id=":Cluster_Sen_KNT_19_0" index="0" speed="10.48" length="14.49" shape="13196.51,4368.04 13190.09,4370.11 13184.42,4374.87 13184.24,4375.17"/>
    </edge>
    <edge id=":Cluster_Sen_KNT_20" function="internal">
        <lane id=":Cluster_Sen_KNT_20_0" index="0" speed="10.38" length="10.46" shape="13196.51,4368.04 13189.27,4369.56 13186.87,4371.46"/>
    </edge>
    <edge id=":Cluster_Sen_KNT_38" function="internal">
        <lane id=":Cluster_Sen_KNT_38_0" index="0" speed="10.48" length="13.50" shape="13184.24,4375.17 13180.67,4381.11 13180.02,4387.64"/>
    </edge>
    <edge id=":Cluster_Sen_KNT_39" function="internal">
        <lane id=":Cluster_Sen_KNT_39_0" index="0" speed="10.38" length="16.99" shape="13186.87,4371.46 13184.63,4373.22 13182.59,4379.04 13183.15,4387.00"/>
    </edge>
    <edge id=":Cluster_Sen_KNT_21" function="internal">
        <lane id=":Cluster_Sen_KNT_21_0" index="0" speed="9.33" length="17.34" shape="13164.35,4383.08 13170.80,4383.11 13175.56,4383.87 13178.63,4385.38 13180.02,4387.64"/>
    </edge>
    <edge id=":Cluster_Sen_KNT_22" function="internal">
        <lane id=":Cluster_Sen_KNT_22_0" index="0" speed="10.00" length="20.08" shape="13164.35,4383.08 13172.21,4383.01 13177.96,4383.63 13181.61,4384.96 13183.15,4387.00"/>
    </edge>
    <edge id=":Cluster_Sen_KNT_23" function="internal">
        <lane id=":Cluster_Sen_KNT_23_0" index="0" speed="13.89" length="33.23" shape="13164.35,4383.08 13174.23,4382.11 13181.11,4380.70 13187.73,4379.35 13196.82,4378.57"/>
        <lane id=":Cluster_Sen_KNT_23_1" index="1" speed="13.89" length="33.23" shape="13164.35,4383.08 13174.32,4381.60 13181.15,4379.10 13187.68,4376.65 13196.73,4375.37"/>
        <lane id=":Cluster_Sen_KNT_23_2" index="2" speed="13.89" length="33.23" shape="13164.35,4383.08 13174.47,4381.10 13181.25,4377.49 13187.66,4373.95 13196.63,4372.18"/>
        <lane id=":Cluster_Sen_KNT_23_3" index="3" speed="13.89" length="33.23" shape="13164.12,4379.89 13196.82,4378.57"/>
        <lane id=":Cluster_Sen_KNT_23_4" index="4" speed="13.89" length="33.23" shape="13164.12,4379.89 13174.04,4378.91 13180.97,4377.50 13187.62,4376.16 13196.73,4375.37"/>
        <lane id=":Cluster_Sen_KNT_23_5" index="5" speed="13.89" length="33.23" shape="13164.12,4379.89 13174.13,4378.41 13181.01,4375.90 13187.57,4373.46 13196.63,4372.18"/>
        <lane id=":Cluster_Sen_KNT_23_6" index="6" speed="13.89" length="33.23" shape="13163.88,4376.70 13173.87,4376.72 13180.91,4377.50 13187.67,4378.36 13196.82,4378.57"/>
        <lane id=":Cluster_Sen_KNT_23_7" index="7" speed="13.89" length="33.23" shape="13163.88,4376.70 13196.73,4375.37"/>
        <lane id=":Cluster_Sen_KNT_23_8" index="8" speed="13.89" length="33.23" shape="13163.88,4376.70 13173.86,4375.72 13180.83,4374.31 13187.51,4372.96 13196.63,4372.18"/>
    </edge>
    <edge id=":Cluster_Sen_KNT_32" function="internal">
        <lane id=":Cluster_Sen_KNT_32_0" index="0" speed="12.58" length="25.08" shape="13163.88,4376.70 13171.84,4374.02 13180.64,4367.90 13184.69,4363.52"/>
    </edge>
    <edge id=":Cluster_Sen_KNT_33" function="internal">
        <lane id=":Cluster_Sen_KNT_33_0" index="0" speed="12.67" length="22.52" shape="13163.88,4376.70 13174.60,4374.79 13182.04,4370.27 13183.52,4367.75"/>
    </edge>
    <edge id=":Cluster_Sen_KNT_34" function="internal">
        <lane id=":Cluster_Sen_KNT_34_0" index="0" speed="12.24" length="20.01" shape="13163.88,4376.70 13173.20,4374.87 13179.65,4370.40 13180.85,4368.02"/>
    </edge>
    <edge id=":Cluster_Sen_KNT_35" function="internal">
        <lane id=":Cluster_Sen_KNT_35_0" index="0" speed="12.73" length="21.75" shape="13163.65,4373.51 13175.78,4371.73 13184.28,4367.75 13184.34,4367.67"/>
    </edge>
    <edge id=":Cluster_Sen_KNT_36" function="internal">
        <lane id=":Cluster_Sen_KNT_36_0" index="0" speed="12.27" length="19.33" shape="13163.65,4373.51 13174.39,4371.80 13181.88,4367.88"/>
    </edge>
    <edge id=":Cluster_Sen_KNT_37" function="internal">
        <lane id=":Cluster_Sen_KNT_37_0" index="0" speed="11.80" length="16.69" shape="13163.65,4373.51 13172.99,4371.87 13179.18,4368.19"/>
    </edge>