<?xml version="1.0" encoding="UTF-8"?>

<!-- generated on 06/11/20 14:30:14 by Eclipse SUMO netedit Version 1.6.0
<configuration xmlns:xsi="http://www.w3.org/2001/XMLSchema-instance" xsi:noNamespaceSchemaLocation="http://sumo.dlr.de/xsd/netconvertConfiguration.xsd">

    <input>
        <sumo-net-file value="C:\Users\sen_s\OneDrive\Desktop\Rama_Sen.net.xml"/>
    </input>

    <output>
        <output-file value="C:\Users\sen_s\OneDrive\Desktop\Rama_Sen.net.xml"/>
    </output>

    <processing>
        <geometry.min-radius.fix.railways value="false"/>
        <geometry.max-grade.fix value="false"/>
        <offset.disable-normalization value="true"/>
        <lefthand value="true"/>
    </processing>

    <junctions>
        <no-turnarounds value="true"/>
        <junctions.corner-detail value="5"/>
        <junctions.limit-turn-speed value="5.5"/>
        <rectangular-lane-cut value="false"/>
    </junctions>

    <pedestrian>
        <walkingareas value="false"/>
    </pedestrian>

    <report>
        <aggregate-warnings value="5"/>
    </report>

</configuration>
-->

<net version="1.6" junctionCornerDetail="5" lefthand="true" limitTurnSpeed="5.50" xmlns:xsi="http://www.w3.org/2001/XMLSchema-instance" xsi:noNamespaceSchemaLocation="http://sumo.dlr.de/xsd/net_file.xsd">

    <location netOffset="0.00,-0.00" convBoundary="11308.58,4335.01,13354.12,5086.21" origBoundary="-10000000000.00,-10000000000.00,10000000000.00,10000000000.00" projParameter="!"/>

    <edge id=":Book_Start_0" function="internal">
        <lane id=":Book_Start_0_0" index="0" speed="13.89" length="7.99" shape="13317.66,4354.47 13309.69,4355.02"/>
        <lane id=":Book_Start_0_1" index="1" speed="13.89" length="7.99" shape="13317.88,4357.66 13309.90,4358.21"/>
        <lane id=":Book_Start_0_2" index="2" speed="13.89" length="7.99" shape="13318.10,4360.85 13310.12,4361.41"/>
    </edge>
    <edge id=":Book_Start_3" function="internal">
        <lane id=":Book_Start_3_0" index="0" speed="13.89" length="9.22" shape="13310.34,4364.60 13313.04,4365.42 13314.51,4367.52 13316.00,4369.62 13318.77,4370.43"/>
        <lane id=":Book_Start_3_1" index="1" speed="13.89" length="9.22" shape="13310.34,4364.60 13312.83,4364.93 13314.44,4365.92 13316.06,4366.91 13318.55,4367.24"/>
        <lane id=":Book_Start_3_2" index="2" speed="13.89" length="9.22" shape="13310.34,4364.60 13318.32,4364.05"/>
    </edge>
    <edge id=":Sen_17_1_0" function="internal">
        <lane id=":Sen_17_1_0_0" index="0" speed="13.89" length="14.44" shape="11443.10,5016.10 11429.92,5022.03"/>
        <lane id=":Sen_17_1_0_1" index="1" speed="13.89" length="14.44" shape="11444.40,5019.02 11431.23,5024.95"/>
        <lane id=":Sen_17_1_0_2" index="2" speed="13.89" length="14.44" shape="11445.71,5021.94 11432.55,5027.86"/>
    </edge>
    <edge id=":Sen_17_1_3" function="internal">
        <lane id=":Sen_17_1_3_0" index="0" speed="9.34" length="4.85" shape="11445.71,5021.94 11442.61,5024.37 11442.30,5025.23"/>
    </edge>
    <edge id=":Sen_17_1_11" function="internal">
        <lane id=":Sen_17_1_11_0" index="0" speed="9.34" length="14.77" shape="11442.30,5025.23 11441.27,5028.10 11441.70,5033.12 11443.89,5039.43"/>
    </edge>
    <edge id=":Sen_17_1_4" function="internal">
        <lane id=":Sen_17_1_4_0" index="0" speed="6.53" length="9.07" shape="11446.82,5038.14 11446.14,5035.74 11446.39,5033.70 11447.55,5032.02 11449.64,5030.70"/>
    </edge>
    <edge id=":Sen_17_1_5" function="internal">
        <lane id=":Sen_17_1_5_0" index="0" speed="9.93" length="22.56" shape="11446.82,5038.14 11443.05,5030.99 11439.20,5026.41 11435.26,5024.39 11431.23,5024.95"/>
    </edge>
    <edge id=":Sen_17_1_6" function="internal">
        <lane id=":Sen_17_1_6_0" index="0" speed="9.30" length="19.69" shape="11446.82,5038.14 11443.62,5032.27 11440.17,5028.60 11436.49,5027.13 11432.55,5027.86"/>
    </edge>
    <edge id=":Sen_17_1_7" function="internal">
        <lane id=":Sen_17_1_7_0" index="0" speed="6.49" length="9.03" shape="11436.51,5036.61 11438.89,5035.92 11440.91,5036.16 11442.58,5037.33 11443.89,5039.43"/>
    </edge>
    <edge id=":Sen_17_1_8" function="internal">
        <lane id=":Sen_17_1_8_0" index="0" speed="13.89" length="14.41" shape="11436.51,5036.61 11449.64,5030.70"/>
        <lane id=":Sen_17_1_8_1" index="1" speed="13.89" length="14.41" shape="11435.19,5033.69 11448.33,5027.78"/>
        <lane id=":Sen_17_1_8_2" index="2" speed="13.89" length="14.41" shape="11433.87,5030.78 11447.02,5024.86"/>
    </edge>
    <edge id=":Sen_17_10_0" function="internal">
        <lane id=":Sen_17_10_0_0" index="0" speed="13.89" length="8.55" shape="12217.37,4671.61 12214.95,4672.15 12213.12,4671.76 12211.29,4671.37 12208.86,4671.88"/>
        <lane id=":Sen_17_10_0_1" index="1" speed="13.89" length="8.55" shape="12218.68,4674.53 12216.25,4675.07 12214.42,4674.69 12212.58,4674.30 12210.14,4674.82"/>
        <lane id=":Sen_17_10_0_2" index="2" speed="13.89" length="8.55" shape="12220.00,4677.45 12217.56,4678.00 12215.71,4677.62 12213.87,4677.23 12211.42,4677.75"/>
        <lane id=":Sen_17_10_0_3" index="3" speed="13.89" length="8.55" shape="12220.00,4677.45 12212.70,4680.68"/>
    </edge>
    <edge id=":Sen_17_10_4" function="internal">
        <lane id=":Sen_17_10_4_0" index="0" speed="13.89" length="8.06" shape="12216.54,4689.48 12223.94,4686.20"/>
        <lane id=":Sen_17_10_4_1" index="1" speed="13.89" length="8.06" shape="12215.26,4686.55 12222.62,4683.28"/>
        <lane id=":Sen_17_10_4_2" index="2" speed="13.89" length="8.06" shape="12213.98,4683.62 12221.31,4680.37"/>
    </edge>
    <edge id=":Sen_17_11_0" function="internal">
        <lane id=":Sen_17_11_0_0" index="0" speed="13.89" length="15.15" shape="12299.09,4634.86 12285.26,4641.07"/>
        <lane id=":Sen_17_11_0_1" index="1" speed="13.89" length="15.15" shape="12300.40,4637.79 12286.57,4643.99"/>
        <lane id=":Sen_17_11_0_2" index="2" speed="13.89" length="15.15" shape="12301.70,4640.71 12287.89,4646.91"/>
    </edge>
    <edge id=":Sen_17_11_3" function="internal">
        <lane id=":Sen_17_11_3_0" index="0" speed="11.38" length="3.28" shape="12301.70,4640.71 12300.07,4642.50 12299.80,4643.31"/>
    </edge>
    <edge id=":Sen_17_11_11" function="internal">
        <lane id=":Sen_17_11_11_0" index="0" speed="11.38" length="16.43" shape="12299.80,4643.31 12298.85,4646.23 12298.04,4651.90 12297.63,4659.52"/>
    </edge>
    <edge id=":Sen_17_11_4" function="internal">
        <lane id=":Sen_17_11_4_0" index="0" speed="8.90" length="11.78" shape="12300.83,4659.59 12301.20,4655.93 12302.12,4653.03 12303.59,4650.88 12305.60,4649.48"/>
    </edge>
    <edge id=":Sen_17_11_5" function="internal">
        <lane id=":Sen_17_11_5_0" index="0" speed="9.38" length="26.69" shape="12300.83,4659.59 12300.23,4651.53 12297.82,4645.58 12293.36,4642.75 12286.57,4643.99"/>
    </edge>
    <edge id=":Sen_17_11_6" function="internal">
        <lane id=":Sen_17_11_6_0" index="0" speed="8.84" length="23.53" shape="12300.83,4659.59 12300.19,4651.79 12297.81,4647.07 12293.71,4645.44 12287.89,4646.91"/>
    </edge>
    <edge id=":Sen_17_11_7" function="internal">
        <lane id=":Sen_17_11_7_0" index="0" speed="5.76" length="9.17" shape="12291.82,4655.66 12294.42,4654.90 12296.26,4655.29 12297.33,4656.83 12297.63,4659.52"/>
    </edge>
    <edge id=":Sen_17_11_8" function="internal">
        <lane id=":Sen_17_11_8_0" index="0" speed="13.89" length="15.11" shape="12291.82,4655.66 12305.60,4649.48"/>
        <lane id=":Sen_17_11_8_1" index="1" speed="13.89" length="15.11" shape="12290.51,4652.75 12304.30,4646.56"/>
        <lane id=":Sen_17_11_8_2" index="2" speed="13.89" length="15.11" shape="12289.20,4649.83 12303.00,4643.63"/>
    </edge>
    <edge id=":Sen_17_12_0" function="internal">
        <lane id=":Sen_17_12_0_0" index="0" speed="13.89" length="0.29" shape="12379.98,4598.86 12379.72,4598.97"/>
        <lane id=":Sen_17_12_0_1" index="1" speed="13.89" length="0.29" shape="12381.29,4601.78 12381.02,4601.90"/>
        <lane id=":Sen_17_12_0_2" index="2" speed="13.89" length="0.29" shape="12382.59,4604.70 12382.32,4604.82"/>
    </edge>
    <edge id=":Sen_17_12_3" function="internal">
        <lane id=":Sen_17_12_3_0" index="0" speed="13.89" length="0.31" shape="12386.23,4613.59 12386.51,4613.46"/>
        <lane id=":Sen_17_12_3_1" index="1" speed="13.89" length="0.31" shape="12384.93,4610.67 12385.21,4610.54"/>
        <lane id=":Sen_17_12_3_2" index="2" speed="13.89" length="0.31" shape="12383.62,4607.74 12383.90,4607.62"/>
    </edge>
    <edge id=":Sen_17_13_0" function="internal">
        <lane id=":Sen_17_13_0_0" index="0" speed="13.89" length="14.91" shape="12468.34,4559.33 12454.72,4565.41"/>
        <lane id=":Sen_17_13_0_1" index="1" speed="13.89" length="14.91" shape="12469.64,4562.25 12456.02,4568.33"/>
        <lane id=":Sen_17_13_0_2" index="2" speed="13.89" length="14.91" shape="12470.94,4565.17 12457.33,4571.25"/>
    </edge>
    <edge id=":Sen_17_13_3" function="internal">
        <lane id=":Sen_17_13_3_0" index="0" speed="10.93" length="3.51" shape="12470.94,4565.17 12469.08,4567.06 12468.81,4567.88"/>
    </edge>
    <edge id=":Sen_17_13_11" function="internal">
        <lane id=":Sen_17_13_11_0" index="0" speed="10.93" length="16.07" shape="12468.81,4567.88 12467.86,4570.79 12467.28,4576.36 12467.34,4583.77"/>
    </edge>
    <edge id=":Sen_17_13_4" function="internal">
        <lane id=":Sen_17_13_4_0" index="0" speed="8.40" length="11.27" shape="12470.53,4583.62 12470.67,4580.17 12471.44,4577.40 12472.83,4575.33 12474.84,4573.95"/>
    </edge>
    <edge id=":Sen_17_13_5" function="internal">
        <lane id=":Sen_17_13_5_0" index="0" speed="9.51" length="26.35" shape="12470.53,4583.62 12469.54,4575.63 12467.09,4569.80 12462.73,4567.06 12456.02,4568.33"/>
    </edge>
    <edge id=":Sen_17_13_6" function="internal">
        <lane id=":Sen_17_13_6_0" index="0" speed="8.88" length="22.78" shape="12470.53,4583.62 12469.40,4576.13 12466.83,4571.57 12462.80,4569.95 12457.33,4571.25"/>
    </edge>
    <edge id=":Sen_17_13_7" function="internal">
        <lane id=":Sen_17_13_7_0" index="0" speed="5.85" length="9.12" shape="12461.25,4580.02 12463.81,4579.28 12465.67,4579.66 12466.85,4581.15 12467.34,4583.77"/>
    </edge>
    <edge id=":Sen_17_13_8" function="internal">
        <lane id=":Sen_17_13_8_0" index="0" speed="13.89" length="14.89" shape="12461.25,4580.02 12474.84,4573.95"/>
        <lane id=":Sen_17_13_8_1" index="1" speed="13.89" length="14.89" shape="12459.94,4577.10 12473.54,4571.02"/>
        <lane id=":Sen_17_13_8_2" index="2" speed="13.89" length="14.89" shape="12458.64,4574.18 12472.24,4568.10"/>
    </edge>
    <edge id=":Sen_17_14_0" function="internal">
        <lane id=":Sen_17_14_0_0" index="0" speed="13.89" length="0.32" shape="12556.39,4520.17 12556.08,4520.30"/>
        <lane id=":Sen_17_14_0_1" index="1" speed="13.89" length="0.32" shape="12557.68,4523.10 12557.38,4523.22"/>
        <lane id=":Sen_17_14_0_2" index="2" speed="13.89" length="0.32" shape="12558.96,4526.03 12558.68,4526.15"/>
    </edge>
    <edge id=":Sen_17_14_3" function="internal">
        <lane id=":Sen_17_14_3_0" index="0" speed="13.89" length="0.28" shape="12562.58,4534.92 12562.83,4534.81"/>
        <lane id=":Sen_17_14_3_1" index="1" speed="13.89" length="0.28" shape="12561.28,4532.00 12561.54,4531.88"/>
        <lane id=":Sen_17_14_3_2" index="2" speed="13.89" length="0.28" shape="12559.98,4529.07 12560.25,4528.95"/>
    </edge>
    <edge id=":Sen_17_15_0" function="internal">
        <lane id=":Sen_17_15_0_0" index="0" speed="13.89" length="0.27" shape="12647.10,4480.30 12646.87,4480.40"/>
        <lane id=":Sen_17_15_0_1" index="1" speed="13.89" length="0.27" shape="12648.41,4483.22 12648.16,4483.33"/>
        <lane id=":Sen_17_15_0_2" index="2" speed="13.89" length="0.27" shape="12649.71,4486.14 12649.45,4486.26"/>
    </edge>
    <edge id=":Sen_17_15_3" function="internal">
        <lane id=":Sen_17_15_3_0" index="0" speed="13.89" length="0.33" shape="12653.31,4495.04 12653.63,4494.90"/>
        <lane id=":Sen_17_15_3_1" index="1" speed="13.89" length="0.33" shape="12652.02,4492.11 12652.33,4491.98"/>
        <lane id=":Sen_17_15_3_2" index="2" speed="13.89" length="0.33" shape="12650.74,4489.18 12651.02,4489.06"/>
    </edge>
    <edge id=":Sen_17_16_0" function="internal">
        <lane id=":Sen_17_16_0_0" index="0" speed="13.89" length="0.33" shape="12735.48,4440.78 12735.16,4440.93"/>
        <lane id=":Sen_17_16_0_1" index="1" speed="13.89" length="0.33" shape="12736.77,4443.71 12736.47,4443.85"/>
        <lane id=":Sen_17_16_0_2" index="2" speed="13.89" length="0.33" shape="12738.05,4446.65 12737.77,4446.77"/>
    </edge>
    <edge id=":Sen_17_16_3" function="internal">
        <lane id=":Sen_17_16_3_0" index="0" speed="13.89" length="0.26" shape="12741.69,4455.53 12741.91,4455.44"/>
        <lane id=":Sen_17_16_3_1" index="1" speed="13.89" length="0.26" shape="12740.38,4452.61 12740.63,4452.51"/>
        <lane id=":Sen_17_16_3_2" index="2" speed="13.89" length="0.26" shape="12739.08,4449.69 12739.34,4449.58"/>
    </edge>
    <edge id=":Sen_17_17_0" function="internal">
        <lane id=":Sen_17_17_0_0" index="0" speed="10.44" length="16.93" shape="12815.92,4397.57 12815.27,4401.32 12813.36,4404.63 12810.20,4407.50 12805.79,4409.93"/>
    </edge>
    <edge id=":Sen_17_17_1" function="internal">
        <lane id=":Sen_17_17_1_0" index="0" speed="8.85" length="23.29" shape="12815.92,4397.57 12816.69,4405.28 12819.11,4409.96 12823.19,4411.60 12828.91,4410.20"/>
    </edge>
    <edge id=":Sen_17_17_2" function="internal">
        <lane id=":Sen_17_17_2_0" index="0" speed="5.78" length="9.15" shape="12825.00,4401.43 12822.41,4402.18 12820.57,4401.79 12819.47,4400.26 12819.12,4397.59"/>
    </edge>
    <edge id=":Sen_17_17_3" function="internal">
        <lane id=":Sen_17_17_3_0" index="0" speed="13.89" length="21.02" shape="12825.00,4401.43 12805.79,4409.93"/>
        <lane id=":Sen_17_17_3_1" index="1" speed="13.89" length="21.02" shape="12826.30,4404.36 12807.08,4412.86"/>
        <lane id=":Sen_17_17_3_2" index="2" speed="13.89" length="21.02" shape="12827.60,4407.28 12808.36,4415.79"/>
    </edge>
    <edge id=":Sen_17_17_6" function="internal">
        <lane id=":Sen_17_17_6_0" index="0" speed="11.09" length="17.40" shape="12820.98,4428.83 12821.90,4424.88 12823.96,4421.43 12827.16,4418.49 12831.51,4416.05"/>
    </edge>
    <edge id=":Sen_17_17_7" function="internal">
        <lane id=":Sen_17_17_7_0" index="0" speed="13.89" length="31.32" shape="12820.98,4428.83 12821.03,4420.44 12820.35,4411.34 12819.51,4403.18 12819.12,4397.59"/>
    </edge>
    <edge id=":Sen_17_17_8" function="internal">
        <lane id=":Sen_17_17_8_0" index="0" speed="8.20" length="20.61" shape="12817.79,4428.56 12817.75,4421.18 12816.16,4416.60 12813.03,4414.80 12808.36,4415.79"/>
    </edge>
    <edge id=":Sen_17_17_9" function="internal">
        <lane id=":Sen_17_17_9_0" index="0" speed="13.89" length="21.08" shape="12812.22,4424.58 12831.51,4416.05"/>
        <lane id=":Sen_17_17_9_1" index="1" speed="13.89" length="21.08" shape="12810.93,4421.65 12830.21,4413.13"/>
        <lane id=":Sen_17_17_9_2" index="2" speed="13.89" length="21.08" shape="12809.65,4418.72 12828.91,4410.20"/>
    </edge>
    <edge id=":Sen_17_17_12" function="internal">
        <lane id=":Sen_17_17_12_0" index="0" speed="12.47" length="6.20" shape="12809.65,4418.72 12813.76,4415.86 12814.41,4414.87"/>
    </edge>
    <edge id=":Sen_17_17_13" function="internal">
        <lane id=":Sen_17_17_13_0" index="0" speed="12.47" length="18.25" shape="12814.41,4414.87 12816.70,4411.38 12818.49,4405.29 12819.12,4397.59"/>
    </edge>
    <edge id=":Sen_17_2_0" function="internal">
        <lane id=":Sen_17_2_0_0" index="0" speed="13.89" length="0.26" shape="11523.77,4979.91 11523.55,4980.01"/>
        <lane id=":Sen_17_2_0_1" index="1" speed="13.89" length="0.26" shape="11525.10,4982.82 11524.86,4982.93"/>
        <lane id=":Sen_17_2_0_2" index="2" speed="13.89" length="0.26" shape="11526.43,4985.73 11526.17,4985.85"/>
    </edge>
    <edge id=":Sen_17_2_3" function="internal">
        <lane id=":Sen_17_2_3_0" index="0" speed="13.89" length="0.33" shape="11530.10,4994.61 11530.42,4994.46"/>
        <lane id=":Sen_17_2_3_1" index="1" speed="13.89" length="0.33" shape="11528.79,4991.69 11529.09,4991.55"/>
        <lane id=":Sen_17_2_3_2" index="2" speed="13.89" length="0.33" shape="11527.48,4988.77 11527.76,4988.64"/>
    </edge>
    <edge id=":Sen_17_3_0" function="internal">
        <lane id=":Sen_17_3_0_0" index="0" speed="6.47" length="9.03" shape="11614.76,4934.85 11612.37,4935.54 11610.35,4935.28 11608.70,4934.10 11607.41,4931.98"/>
    </edge>
    <edge id=":Sen_17_3_1" function="internal">
        <lane id=":Sen_17_3_1_0" index="0" speed="13.89" length="21.59" shape="11614.76,4934.85 11609.16,4937.91 11605.70,4940.67 11602.24,4943.45 11596.67,4946.55"/>
        <lane id=":Sen_17_3_1_1" index="1" speed="13.89" length="21.59" shape="11616.06,4937.78 11610.47,4940.82 11607.02,4943.59 11603.57,4946.36 11598.00,4949.46"/>
        <lane id=":Sen_17_3_1_2" index="2" speed="13.89" length="21.59" shape="11617.37,4940.70 11611.79,4943.74 11608.33,4946.50 11604.89,4949.28 11599.33,4952.37"/>
    </edge>
    <edge id=":Sen_17_3_4" function="internal">
        <lane id=":Sen_17_3_4_0" index="0" speed="9.95" length="6.55" shape="11618.68,4943.62 11614.19,4946.67 11613.64,4947.65"/>
    </edge>
    <edge id=":Sen_17_3_18" function="internal">
        <lane id=":Sen_17_3_18_0" index="0" speed="9.95" length="15.77" shape="11613.64,4947.65 11611.85,4950.87 11611.66,4956.19 11613.62,4962.66"/>
    </edge>
    <edge id=":Sen_17_3_5" function="internal">
        <lane id=":Sen_17_3_5_0" index="0" speed="6.68" length="9.48" shape="11619.50,4960.12 11618.83,4957.64 11619.12,4955.52 11620.38,4953.77 11622.59,4952.38"/>
    </edge>
    <edge id=":Sen_17_3_6" function="internal">
        <lane id=":Sen_17_3_6_0" index="0" speed="13.89" length="30.63" shape="11619.50,4960.12 11607.41,4931.98"/>
        <lane id=":Sen_17_3_6_1" index="1" speed="13.89" length="30.63" shape="11616.56,4961.39 11604.47,4933.23"/>
    </edge>
    <edge id=":Sen_17_3_8" function="internal">
        <lane id=":Sen_17_3_8_0" index="0" speed="9.81" length="22.19" shape="11616.56,4961.39 11613.19,4955.53 11609.20,4952.08 11604.58,4951.02 11599.33,4952.37"/>
    </edge>
    <edge id=":Sen_17_3_9" function="internal">
        <lane id=":Sen_17_3_9_0" index="0" speed="6.46" length="9.03" shape="11603.32,4961.10 11605.71,4960.40 11607.73,4960.63 11609.38,4961.81 11610.68,4963.93"/>
    </edge>
    <edge id=":Sen_17_3_10" function="internal">
        <lane id=":Sen_17_3_10_0" index="0" speed="13.89" length="21.18" shape="11603.32,4961.10 11622.59,4952.38"/>
        <lane id=":Sen_17_3_10_1" index="1" speed="13.89" length="21.18" shape="11601.99,4958.19 11621.29,4949.46"/>
        <lane id=":Sen_17_3_10_2" index="2" speed="13.89" length="21.18" shape="11600.66,4955.28 11619.98,4946.54"/>
    </edge>
    <edge id=":Sen_17_3_13" function="internal">
        <lane id=":Sen_17_3_13_0" index="0" speed="10.58" length="6.90" shape="11600.66,4955.28 11605.05,4952.00 11605.62,4950.70"/>
    </edge>
    <edge id=":Sen_17_3_19" function="internal">
        <lane id=":Sen_17_3_19_0" index="0" speed="10.58" length="18.18" shape="11605.62,4950.70 11607.14,4947.24 11606.95,4940.98 11604.47,4933.23"/>
    </edge>
    <edge id=":Sen_17_3_14" function="internal">
        <lane id=":Sen_17_3_14_0" index="0" speed="7.56" length="12.30" shape="11598.58,4935.75 11599.79,4939.54 11599.88,4942.60 11598.83,4944.94 11596.67,4946.55"/>
    </edge>
    <edge id=":Sen_17_3_15" function="internal">
        <lane id=":Sen_17_3_15_0" index="0" speed="13.89" length="30.66" shape="11598.58,4935.75 11610.68,4963.93"/>
        <lane id=":Sen_17_3_15_1" index="1" speed="13.89" length="30.66" shape="11601.53,4934.49 11613.62,4962.66"/>
    </edge>
    <edge id=":Sen_17_3_17" function="internal">
        <lane id=":Sen_17_3_17_0" index="0" speed="10.38" length="24.91" shape="11601.53,4934.49 11605.41,4941.64 11609.78,4946.03 11614.64,4947.66 11619.98,4946.54"/>
    </edge>
    <edge id=":Sen_17_4_0" function="internal">
        <lane id=":Sen_17_4_0_0" index="0" speed="7.22" length="11.57" shape="11699.87,4900.38 11697.40,4900.87 11695.17,4900.08 11693.18,4897.99 11691.41,4894.63"/>
    </edge>
    <edge id=":Sen_17_4_1" function="internal">
        <lane id=":Sen_17_4_1_0" index="0" speed="13.89" length="14.27" shape="11699.87,4900.38 11686.80,4906.16"/>
        <lane id=":Sen_17_4_1_1" index="1" speed="13.89" length="14.27" shape="11701.15,4903.31 11688.10,4909.09"/>
        <lane id=":Sen_17_4_1_2" index="2" speed="13.89" length="14.27" shape="11702.44,4906.24 11689.41,4912.01"/>
    </edge>
    <edge id=":Sen_17_4_4" function="internal">
        <lane id=":Sen_17_4_4_0" index="0" speed="13.89" length="14.20" shape="11693.33,4920.77 11706.29,4915.04"/>
        <lane id=":Sen_17_4_4_1" index="1" speed="13.89" length="14.20" shape="11692.02,4917.85 11705.01,4912.11"/>
        <lane id=":Sen_17_4_4_2" index="2" speed="13.89" length="14.20" shape="11690.72,4914.93 11703.72,4909.18"/>
    </edge>
    <edge id=":Sen_17_4_7" function="internal">
        <lane id=":Sen_17_4_7_0" index="0" speed="10.00" length="4.43" shape="11690.72,4914.93 11693.62,4912.38 11693.76,4911.83"/>
    </edge>
    <edge id=":Sen_17_4_13" function="internal">
        <lane id=":Sen_17_4_13_0" index="0" speed="10.00" length="17.79" shape="11693.76,4911.83 11694.71,4908.15 11693.97,4902.23 11691.41,4894.63"/>
    </edge>
    <edge id=":Sen_17_4_8" function="internal">
        <lane id=":Sen_17_4_8_0" index="0" speed="6.58" length="9.03" shape="11688.45,4895.84 11689.06,4898.23 11688.77,4900.26 11687.58,4901.93 11685.49,4903.24"/>
    </edge>
    <edge id=":Sen_17_4_9" function="internal">
        <lane id=":Sen_17_4_9_0" index="0" speed="7.39" length="11.67" shape="11688.45,4895.84 11689.60,4899.52 11689.70,4902.47 11688.77,4904.69 11686.80,4906.16"/>
    </edge>
    <edge id=":Sen_17_4_10" function="internal">
        <lane id=":Sen_17_4_10_0" index="0" speed="8.16" length="14.47" shape="11688.45,4895.84 11690.13,4900.82 11690.64,4904.68 11689.96,4907.44 11688.10,4909.09"/>
    </edge>
    <edge id=":Sen_17_4_11" function="internal">
        <lane id=":Sen_17_4_11_0" index="0" speed="10.46" length="25.42" shape="11688.45,4895.84 11692.56,4904.33 11696.68,4909.87 11700.83,4912.47 11705.01,4912.11"/>
    </edge>
    <edge id=":Sen_17_4_12" function="internal">
        <lane id=":Sen_17_4_12_0" index="0" speed="9.86" length="22.48" shape="11688.45,4895.84 11692.02,4903.04 11695.75,4907.66 11699.66,4909.71 11703.72,4909.18"/>
    </edge>
    <edge id=":Sen_17_5_0" function="internal">
        <lane id=":Sen_17_5_0_0" index="0" speed="13.89" length="0.26" shape="11780.01,4865.26 11779.79,4865.36"/>
        <lane id=":Sen_17_5_0_1" index="1" speed="13.89" length="0.26" shape="11781.32,4868.19 11781.08,4868.29"/>
        <lane id=":Sen_17_5_0_2" index="2" speed="13.89" length="0.26" shape="11782.62,4871.11 11782.36,4871.22"/>
    </edge>
    <edge id=":Sen_17_5_3" function="internal">
        <lane id=":Sen_17_5_3_0" index="0" speed="13.89" length="0.33" shape="11786.21,4880.02 11786.54,4879.87"/>
        <lane id=":Sen_17_5_3_1" index="1" speed="13.89" length="0.33" shape="11784.93,4877.09 11785.23,4876.95"/>
        <lane id=":Sen_17_5_3_2" index="2" speed="13.89" length="0.33" shape="11783.65,4874.16 11783.93,4874.03"/>
    </edge>
    <edge id=":Sen_17_6_0" function="internal">
        <lane id=":Sen_17_6_0_0" index="0" speed="13.89" length="0.29" shape="11865.75,4826.99 11865.48,4827.11"/>
        <lane id=":Sen_17_6_0_1" index="1" speed="13.89" length="0.29" shape="11867.05,4829.91 11866.79,4830.03"/>
        <lane id=":Sen_17_6_0_2" index="2" speed="13.89" length="0.29" shape="11868.36,4832.83 11868.09,4832.95"/>
    </edge>
    <edge id=":Sen_17_6_3" function="internal">
        <lane id=":Sen_17_6_3_0" index="0" speed="13.89" length="0.31" shape="11872.00,4841.72 11872.29,4841.59"/>
        <lane id=":Sen_17_6_3_1" index="1" speed="13.89" length="0.31" shape="11870.70,4838.79 11870.98,4838.67"/>
        <lane id=":Sen_17_6_3_2" index="2" speed="13.89" length="0.31" shape="11869.40,4835.87 11869.67,4835.75"/>
    </edge>
    <edge id=":Sen_17_7_0" function="internal">
        <lane id=":Sen_17_7_0_0" index="0" speed="13.89" length="15.06" shape="11952.61,4788.09 11938.84,4794.24"/>
        <lane id=":Sen_17_7_0_1" index="1" speed="13.89" length="15.06" shape="11953.91,4791.01 11940.15,4797.16"/>
        <lane id=":Sen_17_7_0_2" index="2" speed="13.89" length="15.06" shape="11955.20,4793.94 11941.46,4800.08"/>
    </edge>
    <edge id=":Sen_17_7_3" function="internal">
        <lane id=":Sen_17_7_3_0" index="0" speed="11.17" length="3.38" shape="11955.20,4793.94 11953.47,4795.77 11953.20,4796.59"/>
    </edge>
    <edge id=":Sen_17_7_11" function="internal">
        <lane id=":Sen_17_7_11_0" index="0" speed="11.17" length="16.27" shape="11953.20,4796.59 11952.24,4799.50 11951.52,4805.13 11951.31,4812.66"/>
    </edge>
    <edge id=":Sen_17_7_4" function="internal">
        <lane id=":Sen_17_7_4_0" index="0" speed="8.67" length="11.56" shape="11954.51,4812.64 11954.78,4809.07 11955.63,4806.22 11957.07,4804.11 11959.09,4802.72"/>
    </edge>
    <edge id=":Sen_17_7_5" function="internal">
        <lane id=":Sen_17_7_5_0" index="0" speed="9.44" length="26.55" shape="11954.51,4812.64 11953.75,4804.60 11951.32,4798.70 11946.90,4795.91 11940.15,4797.16"/>
    </edge>
    <edge id=":Sen_17_7_6" function="internal">
        <lane id=":Sen_17_7_6_0" index="0" speed="8.85" length="23.20" shape="11954.51,4812.64 11953.66,4804.97 11951.20,4800.32 11947.13,4798.69 11941.46,4800.08"/>
    </edge>
    <edge id=":Sen_17_7_7" function="internal">
        <lane id=":Sen_17_7_7_0" index="0" speed="5.79" length="9.15" shape="11945.39,4808.84 11947.96,4808.09 11949.81,4808.48 11950.93,4810.00 11951.31,4812.66"/>
    </edge>
    <edge id=":Sen_17_7_8" function="internal">
        <lane id=":Sen_17_7_8_0" index="0" speed="13.89" length="15.02" shape="11945.39,4808.84 11959.09,4802.72"/>
        <lane id=":Sen_17_7_8_1" index="1" speed="13.89" length="15.02" shape="11944.08,4805.92 11957.79,4799.79"/>
        <lane id=":Sen_17_7_8_2" index="2" speed="13.89" length="15.02" shape="11942.77,4803.00 11956.50,4796.87"/>
    </edge>
    <edge id=":Sen_17_8_0" function="internal">
        <lane id=":Sen_17_8_0_0" index="0" speed="13.89" length="8.01" shape="12042.82,4748.18 12035.48,4751.41"/>
        <lane id=":Sen_17_8_0_1" index="1" speed="13.89" length="8.01" shape="12044.11,4751.11 12036.78,4754.34"/>
        <lane id=":Sen_17_8_0_2" index="2" speed="13.89" length="8.01" shape="12045.40,4754.03 12038.07,4757.27"/>
    </edge>
    <edge id=":Sen_17_8_3" function="internal">
        <lane id=":Sen_17_8_3_0" index="0" speed="13.89" length="8.60" shape="12041.96,4766.04 12044.41,4765.51 12046.25,4765.89 12048.10,4766.28 12050.55,4765.75"/>
        <lane id=":Sen_17_8_3_1" index="1" speed="13.89" length="8.60" shape="12040.66,4763.12 12043.11,4762.58 12044.96,4762.97 12046.81,4763.35 12049.26,4762.82"/>
        <lane id=":Sen_17_8_3_2" index="2" speed="13.89" length="8.60" shape="12039.37,4760.19 12041.82,4759.65 12043.67,4760.04 12045.52,4760.43 12047.97,4759.89"/>
        <lane id=":Sen_17_8_3_3" index="3" speed="13.89" length="8.60" shape="12039.37,4760.19 12046.69,4756.96"/>
    </edge>
    <edge id=":Sen_4_lanes_0" function="internal">
        <lane id=":Sen_4_lanes_0_0" index="0" speed="13.89" length="8.74" shape="13125.99,4364.90 13123.61,4365.60 13122.18,4366.81 13120.75,4368.02 13118.37,4368.68"/>
        <lane id=":Sen_4_lanes_0_1" index="1" speed="13.89" length="8.74" shape="13126.25,4368.09 13123.85,4368.79 13122.42,4370.00 13120.98,4371.21 13118.59,4371.88"/>
        <lane id=":Sen_4_lanes_0_2" index="2" speed="13.89" length="8.74" shape="13126.51,4371.28 13124.10,4371.98 13122.66,4373.20 13121.21,4374.40 13118.80,4375.07"/>
    </edge>
    <edge id=":Sen_4_lanes_3" function="internal">
        <lane id=":Sen_4_lanes_3_0" index="0" speed="13.89" length="8.06" shape="13119.46,4384.65 13127.54,4384.04"/>
        <lane id=":Sen_4_lanes_3_1" index="1" speed="13.89" length="8.06" shape="13119.24,4381.45 13127.28,4380.85"/>
        <lane id=":Sen_4_lanes_3_2" index="2" speed="13.89" length="8.06" shape="13119.02,4378.26 13127.02,4377.66"/>
    </edge>
    <edge id=":Sen_BKKUni_0" function="internal">
        <lane id=":Sen_BKKUni_0_0" index="0" speed="6.07" length="7.91" shape="12819.12,4396.83 12818.82,4394.67 12817.91,4393.15 12816.37,4392.26 12814.20,4392.00"/>
    </edge>
    <edge id=":Sen_BKKUni_1" function="internal">
        <lane id=":Sen_BKKUni_1_0" index="0" speed="3.90" length="2.64" shape="12814.28,4395.20 12815.00,4395.29 12815.52,4395.58 12815.82,4396.09 12815.92,4396.81"/>
    </edge>
    <edge id=":Sen_Curve_1_0" function="internal">
        <lane id=":Sen_Curve_1_0_0" index="0" speed="13.89" length="5.22" shape="12863.48,4385.54 12861.59,4385.67 12860.31,4385.87 12859.07,4386.28 12857.33,4387.03"/>
        <lane id=":Sen_Curve_1_0_1" index="1" speed="13.89" length="5.22" shape="12863.66,4388.74 12862.12,4388.84 12861.07,4389.01 12860.06,4389.34 12858.64,4389.96"/>