<?xml version="1.0" encoding="UTF-8"?>

<!-- generated on 06/13/20 21:45:51 by Eclipse SUMO netedit Version 1.6.0
<configuration xmlns:xsi="http://www.w3.org/2001/XMLSchema-instance" xsi:noNamespaceSchemaLocation="http://sumo.dlr.de/xsd/netconvertConfiguration.xsd">

    <input>
        <sumo-net-file value="C:\Program%20Files%20(x86)\Eclipse\Sumo\Rama4_Skhumvit.net.xml"/>
    </input>

    <output>
        <output-file value="C:\Program%20Files%20(x86)\Eclipse\Sumo\Rama4_Skhumvit.net.xml"/>
    </output>

    <processing>
        <geometry.min-radius.fix.railways value="false"/>
        <geometry.max-grade.fix value="false"/>
        <offset.disable-normalization value="true"/>
        <lefthand value="true"/>
    </processing>

    <junctions>
        <no-turnarounds value="true"/>
        <junctions.corner-detail value="5"/>
        <junctions.limit-turn-speed value="5.5"/>
        <rectangular-lane-cut value="false"/>
    </junctions>

    <pedestrian>
        <walkingareas value="false"/>
    </pedestrian>

    <report>
        <aggregate-warnings value="5"/>
    </report>

</configuration>
-->

<net version="1.6" junctionCornerDetail="5" lefthand="true" limitTurnSpeed="5.50" xmlns:xsi="http://www.w3.org/2001/XMLSchema-instance" xsi:noNamespaceSchemaLocation="http://sumo.dlr.de/xsd/net_file.xsd">

    <location netOffset="0.00,0.00" convBoundary="5700.94,1015.93,14149.26,6594.03" origBoundary="-10000000000.00,-10000000000.00,10000000000.00,10000000000.00" projParameter="!"/>

    <edge id=":900020258_0" function="internal">
        <lane id=":900020258_0_0" index="0" speed="7.91" length="23.16" shape="10908.24,5048.14 10903.96,5053.45 10902.53,5059.12 10904.30,5063.63 10909.64,5065.47"/>
    </edge>
    <edge id=":900020258_1" function="internal">
        <lane id=":900020258_1_0" index="0" speed="5.87" length="10.59" shape="10909.60,5051.81 10905.69,5054.43 10904.39,5057.05 10905.70,5059.66 10909.63,5062.27"/>
        <lane id=":900020258_1_1" index="1" speed="4.00" length="10.59" shape="10909.61,5055.02 10908.09,5056.03 10907.59,5057.05 10908.10,5058.06 10909.62,5059.07"/>
    </edge>
    <edge id=":Book_Start_1_0" function="internal">
        <lane id=":Book_Start_1_0_0" index="0" speed="13.89" length="0.30" shape="13315.53,4371.34 13315.86,4371.31"/>
        <lane id=":Book_Start_1_0_1" index="1" speed="13.89" length="0.30" shape="13315.29,4368.15 13315.58,4368.12"/>
        <lane id=":Book_Start_1_0_2" index="2" speed="13.89" length="0.30" shape="13315.05,4364.95 13315.31,4364.93"/>
    </edge>
    <edge id=":Book_Start_2_0" function="internal">
        <lane id=":Book_Start_2_0_0" index="0" speed="13.89" length="0.29" shape="13311.25,4353.08 13310.91,4353.09"/>
        <lane id=":Book_Start_2_0_1" index="1" speed="13.89" length="0.29" shape="13311.33,4356.28 13311.04,4356.29"/>
        <lane id=":Book_Start_2_0_2" index="2" speed="13.89" length="0.29" shape="13311.40,4359.48 13311.16,4359.49"/>
    </edge>
    <edge id=":Cluster_Sen_17_13_0" function="internal">
        <lane id=":Cluster_Sen_17_13_0_0" index="0" speed="13.89" length="14.78" shape="12467.44,4557.32 12453.96,4563.32"/>
        <lane id=":Cluster_Sen_17_13_0_1" index="1" speed="13.89" length="14.78" shape="12468.75,4560.24 12455.24,4566.25"/>
        <lane id=":Cluster_Sen_17_13_0_2" index="2" speed="13.89" length="14.78" shape="12470.05,4563.17 12456.53,4569.18"/>
    </edge>
    <edge id=":Cluster_Sen_17_13_3" function="internal">
        <lane id=":Cluster_Sen_17_13_3_0" index="0" speed="11.41" length="5.80" shape="12470.05,4563.17 12468.54,4565.06 12467.77,4568.34"/>
    </edge>
    <edge id=":Cluster_Sen_17_13_11" function="internal">
        <lane id=":Cluster_Sen_17_13_11_0" index="0" speed="11.41" length="15.46" shape="12467.77,4568.34 12467.58,4569.12 12467.18,4575.36 12467.34,4583.77"/>
    </edge>
    <edge id=":Cluster_Sen_17_13_4" function="internal">
        <lane id=":Cluster_Sen_17_13_4_0" index="0" speed="8.40" length="11.27" shape="12470.53,4583.62 12470.67,4580.17 12471.44,4577.40 12472.83,4575.33 12474.84,4573.95"/>
    </edge>
    <edge id=":Cluster_Sen_17_13_5" function="internal">
        <lane id=":Cluster_Sen_17_13_5_0" index="0" speed="9.96" length="28.90" shape="12470.53,4583.62 12469.55,4574.77 12467.09,4568.19 12462.52,4564.98 12455.24,4566.25"/>
    </edge>
    <edge id=":Cluster_Sen_17_13_6" function="internal">
        <lane id=":Cluster_Sen_17_13_6_0" index="0" speed="9.32" length="25.12" shape="12470.53,4583.62 12469.57,4576.03 12467.18,4570.54 12462.96,4567.98 12456.53,4569.18"/>
    </edge>
    <edge id=":Cluster_Sen_17_13_7" function="internal">
        <lane id=":Cluster_Sen_17_13_7_0" index="0" speed="5.84" length="9.11" shape="12461.26,4580.01 12463.81,4579.28 12465.67,4579.66 12466.85,4581.15 12467.34,4583.77"/>
    </edge>
    <edge id=":Cluster_Sen_17_13_8" function="internal">
        <lane id=":Cluster_Sen_17_13_8_0" index="0" speed="13.89" length="14.85" shape="12461.26,4580.01 12474.84,4573.95"/>
        <lane id=":Cluster_Sen_17_13_8_1" index="1" speed="13.89" length="14.85" shape="12459.98,4577.08 12473.54,4571.02"/>
        <lane id=":Cluster_Sen_17_13_8_2" index="2" speed="13.89" length="14.85" shape="12458.70,4574.15 12472.24,4568.10"/>
    </edge>
    <edge id=":Cluster_Sen_17_3_2_0" function="internal">
        <lane id=":Cluster_Sen_17_3_2_0_0" index="0" speed="6.83" length="9.39" shape="11613.62,4935.09 11611.26,4935.74 11609.16,4935.47 11607.33,4934.27 11605.77,4932.14"/>
    </edge>
    <edge id=":Cluster_Sen_17_3_2_1" function="internal">
        <lane id=":Cluster_Sen_17_3_2_1_0" index="0" speed="13.89" length="16.97" shape="11613.62,4935.09 11598.16,4942.18"/>
        <lane id=":Cluster_Sen_17_3_2_1_1" index="1" speed="13.89" length="16.97" shape="11614.93,4938.01 11599.50,4945.08"/>
        <lane id=":Cluster_Sen_17_3_2_1_2" index="2" speed="13.89" length="16.97" shape="11616.23,4940.94 11600.83,4947.99"/>
    </edge>
    <edge id=":Cluster_Sen_17_3_2_4" function="internal">
        <lane id=":Cluster_Sen_17_3_2_4_0" index="0" speed="9.80" length="6.36" shape="11617.54,4943.86 11613.50,4946.71 11612.88,4947.99"/>
    </edge>
    <edge id=":Cluster_Sen_17_3_2_16" function="internal">
        <lane id=":Cluster_Sen_17_3_2_16_0" index="0" speed="9.80" length="15.24" shape="11612.88,4947.99 11611.50,4950.79 11611.53,4956.08 11613.59,4962.59"/>
    </edge>
    <edge id=":Cluster_Sen_17_3_2_5" function="internal">
        <lane id=":Cluster_Sen_17_3_2_5_0" index="0" speed="7.18" length="11.12" shape="11616.53,4961.33 11616.00,4958.84 11616.66,4956.59 11618.51,4954.60 11621.56,4952.85"/>
    </edge>
    <edge id=":Cluster_Sen_17_3_2_6" function="internal">
        <lane id=":Cluster_Sen_17_3_2_6_0" index="0" speed="13.89" length="31.11" shape="11616.53,4961.33 11614.35,4955.44 11611.31,4946.65 11608.19,4937.90 11605.77,4932.14"/>
    </edge>
    <edge id=":Cluster_Sen_17_3_2_7" function="internal">
        <lane id=":Cluster_Sen_17_3_2_7_0" index="0" speed="9.93" length="22.82" shape="11616.53,4961.33 11612.77,4954.06 11608.90,4949.42 11604.92,4947.40 11600.83,4947.99"/>
    </edge>
    <edge id=":Cluster_Sen_17_3_2_8" function="internal">
        <lane id=":Cluster_Sen_17_3_2_8_0" index="0" speed="6.46" length="9.03" shape="11606.23,4959.77 11608.62,4959.06 11610.64,4959.30 11612.29,4960.48 11613.59,4962.59"/>
    </edge>
    <edge id=":Cluster_Sen_17_3_2_9" function="internal">
        <lane id=":Cluster_Sen_17_3_2_9_0" index="0" speed="13.89" length="16.85" shape="11606.23,4959.77 11621.56,4952.85"/>
        <lane id=":Cluster_Sen_17_3_2_9_1" index="1" speed="13.89" length="16.85" shape="11604.90,4956.86 11620.25,4949.93"/>
        <lane id=":Cluster_Sen_17_3_2_9_2" index="2" speed="13.89" length="16.85" shape="11603.56,4953.95 11618.95,4947.00"/>
    </edge>
    <edge id=":Cluster_Sen_17_3_2_12" function="internal">
        <lane id=":Cluster_Sen_17_3_2_12_0" index="0" speed="10.20" length="10.84" shape="11603.56,4953.95 11607.97,4950.64 11609.80,4945.90 11609.77,4945.66"/>
    </edge>
    <edge id=":Cluster_Sen_17_3_2_17" function="internal">
        <lane id=":Cluster_Sen_17_3_2_17_0" index="0" speed="10.20" length="14.24" shape="11609.77,4945.66 11609.07,4939.73 11605.77,4932.14"/>
    </edge>
    <edge id=":Cluster_Sen_17_3_2_13" function="internal">
        <lane id=":Cluster_Sen_17_3_2_13_0" index="0" speed="6.99" length="11.18" shape="11602.97,4933.69 11603.70,4936.10 11603.15,4938.32 11601.30,4940.34 11598.16,4942.18"/>
    </edge>
    <edge id=":Cluster_Sen_17_3_2_14" function="internal">
        <lane id=":Cluster_Sen_17_3_2_14_0" index="0" speed="13.89" length="30.80" shape="11602.97,4933.69 11605.37,4939.41 11608.44,4948.06 11611.44,4956.76 11613.59,4962.59"/>
    </edge>
    <edge id=":Cluster_Sen_17_3_2_15" function="internal">
        <lane id=":Cluster_Sen_17_3_2_15_0" index="0" speed="10.25" length="22.40" shape="11602.97,4933.69 11607.36,4940.67 11611.49,4945.22 11615.35,4947.33 11618.95,4947.00"/>
    </edge>
    <edge id=":Cluster_Sen_17_9_0" function="internal">
        <lane id=":Cluster_Sen_17_9_0_0" index="0" speed="3.74" length="5.02" shape="12138.09,4713.01 12137.26,4714.32 12137.22,4715.27 12137.96,4715.89 12139.48,4716.15"/>
    </edge>
    <edge id=":Cluster_Sen_17_9_1" function="internal">
        <lane id=":Cluster_Sen_17_9_1_0" index="0" speed="3.76" length="5.09" shape="12130.87,4716.47 12131.72,4715.14 12131.77,4714.17 12131.02,4713.55 12129.47,4713.28"/>
    </edge>
    <edge id=":Cluster_Sen_BKT_0" function="internal">
        <lane id=":Cluster_Sen_BKT_0_0" index="0" speed="11.23" length="18.07" shape="12816.29,4394.60 12815.34,4398.22 12813.06,4401.51 12809.44,4404.49 12804.48,4407.15"/>
    </edge>
    <edge id=":Cluster_Sen_BKT_1" function="internal">
        <lane id=":Cluster_Sen_BKT_1_0" index="0" speed="9.43" length="26.41" shape="12816.29,4394.60 12816.40,4402.63 12818.31,4408.68 12822.46,4411.82 12829.26,4411.15"/>
    </edge>
    <edge id=":Cluster_Sen_BKT_2" function="internal">
        <lane id=":Cluster_Sen_BKT_2_0" index="0" speed="5.81" length="9.15" shape="12825.09,4399.16 12822.46,4399.67 12820.65,4399.12 12819.66,4397.50 12819.48,4394.83"/>
    </edge>
    <edge id=":Cluster_Sen_BKT_3" function="internal">
        <lane id=":Cluster_Sen_BKT_3_0" index="0" speed="13.89" length="21.86" shape="12825.09,4399.16 12818.88,4401.28 12814.65,4402.81 12810.49,4404.51 12804.48,4407.15"/>
        <lane id=":Cluster_Sen_BKT_3_1" index="1" speed="13.89" length="21.86" shape="12826.14,4402.18 12820.00,4404.28 12815.83,4405.79 12811.72,4407.47 12805.77,4410.08"/>
        <lane id=":Cluster_Sen_BKT_3_2" index="2" speed="13.89" length="21.86" shape="12827.19,4405.21 12821.13,4407.28 12817.00,4408.77 12812.94,4410.43 12807.07,4413.00"/>
    </edge>
    <edge id=":Cluster_Sen_BKT_6" function="internal">
        <lane id=":Cluster_Sen_BKT_6_0" index="0" speed="10.32" length="16.55" shape="12820.98,4428.83 12821.88,4425.00 12823.92,4421.78 12827.07,4419.18 12831.36,4417.19"/>
    </edge>
    <edge id=":Cluster_Sen_BKT_7" function="internal">
        <lane id=":Cluster_Sen_BKT_7_0" index="0" speed="13.89" length="34.05" shape="12820.98,4428.83 12821.04,4420.01 12820.40,4409.96 12819.68,4400.85 12819.48,4394.83"/>
    </edge>
    <edge id=":Cluster_Sen_BKT_8" function="internal">
        <lane id=":Cluster_Sen_BKT_8_0" index="0" speed="8.80" length="24.01" shape="12817.79,4428.56 12817.83,4421.12 12816.35,4415.26 12812.92,4412.16 12807.07,4413.00"/>
    </edge>
    <edge id=":Cluster_Sen_BKT_9" function="internal">
        <lane id=":Cluster_Sen_BKT_9_0" index="0" speed="13.89" length="20.79" shape="12812.21,4424.59 12831.36,4417.19"/>
        <lane id=":Cluster_Sen_BKT_9_1" index="1" speed="13.89" length="20.79" shape="12810.92,4421.66 12830.31,4414.17"/>
        <lane id=":Cluster_Sen_BKT_9_2" index="2" speed="13.89" length="20.79" shape="12809.62,4418.74 12829.26,4411.15"/>
    </edge>
    <edge id=":Cluster_Sen_BKT_12" function="internal">
        <lane id=":Cluster_Sen_BKT_12_0" index="0" speed="13.59" length="10.60" shape="12809.62,4418.74 12813.37,4415.86 12816.27,4410.92 12816.31,4410.78"/>
    </edge>
    <edge id=":Cluster_Sen_BKT_13" function="internal">
        <lane id=":Cluster_Sen_BKT_13_0" index="0" speed="13.59" length="16.31" shape="12816.31,4410.78 12818.30,4403.91 12819.48,4394.83"/>
    </edge>
    <edge id=":Cluster_Sen_KNT_0" function="internal">
        <lane id=":Cluster_Sen_KNT_0_0" index="0" speed="8.15" length="15.54" shape="13164.35,4383.08 13170.14,4383.16 13174.26,4384.03 13176.71,4385.70 13177.49,4388.16"/>
    </edge>
    <edge id=":Cluster_Sen_KNT_1" function="internal">
        <lane id=":Cluster_Sen_KNT_1_0" index="0" speed="8.87" length="18.59" shape="13164.35,4383.08 13171.54,4383.11 13176.66,4383.97 13179.71,4385.67 13180.69,4388.22"/>
    </edge>
    <edge id=":CrossBridge_to_R_0" function="internal">
        <lane id=":CrossBridge_to_R_0_0" index="0" speed="13.89" length="0.93" shape="11148.16,5124.22 11148.07,5124.21 11148.01,5124.20 11147.95,5124.18 11147.86,5124.15"/>
        <lane id=":CrossBridge_to_R_0_1" index="1" speed="13.89" length="0.93" shape="11147.78,5127.40 11147.51,5127.36 11147.32,5127.33 11147.13,5127.28 11146.87,5127.20"/>
        <lane id=":CrossBridge_to_R_0_2" index="2" speed="13.89" length="0.93" shape="11147.40,5130.57 11146.94,5130.52 11146.63,5130.46 11146.32,5130.38 11145.88,5130.24"/>
    </edge>
    <edge id=":Cross_Bridge_0" function="internal">
        <lane id=":Cross_Bridge_0_0" index="0" speed="13.89" length="0.30" shape="11145.97,5140.78 11146.26,5140.82"/>
        <lane id=":Cross_Bridge_0_1" index="1" speed="13.89" length="0.30" shape="11146.41,5137.61 11146.71,5137.65"/>
        <lane id=":Cross_Bridge_0_2" index="2" speed="13.89" length="0.30" shape="11146.86,5134.44 11147.16,5134.49"/>
    </edge>
    <edge id=":JA10_0" function="internal">
        <lane id=":JA10_0_0" index="0" speed="5.93" length="9.10" shape="11053.60,5088.01 11051.33,5086.70 11050.29,5085.08 11050.46,5083.16 11051.85,5080.94"/>
    </edge>
    <edge id=":JA10_1" function="internal">
        <lane id=":JA10_1_0" index="0" speed="13.89" length="11.40" shape="11053.60,5088.01 11043.05,5083.74"/>
        <lane id=":JA10_1_1" index="1" speed="13.89" length="11.40" shape="11052.40,5090.98 11041.84,5086.70"/>
        <lane id=":JA10_1_2" index="2" speed="13.89" length="11.40" shape="11051.20,5093.94 11040.62,5089.66"/>
    </edge>
    <edge id=":JA12_0" function="internal">
        <lane id=":JA12_0_0" index="0" speed="13.89" length="0.34" shape="11123.39,5116.21 11123.29,5116.17"/>
        <lane id=":JA12_0_1" index="1" speed="13.89" length="0.34" shape="11122.40,5119.25 11122.09,5119.13"/>
        <lane id=":JA12_0_2" index="2" speed="13.89" length="0.34" shape="11121.41,5122.29 11120.89,5122.10"/>
    </edge>
    <edge id=":JA13_0" function="internal">
        <lane id=":JA13_0_0" index="0" speed="13.89" length="0.30" shape="11142.23,5122.33 11141.95,5122.23"/>
        <lane id=":JA13_0_1" index="1" speed="13.89" length="0.30" shape="11141.24,5125.37 11140.96,5125.28"/>
        <lane id=":JA13_0_2" index="2" speed="13.89" length="0.30" shape="11140.26,5128.41 11139.97,5128.32"/>
    </edge>
    <edge id=":JA14_0" function="internal">
        <lane id=":JA14_0_0" index="0" speed="13.89" length="0.17" shape="11136.93,5139.51 11137.21,5139.55"/>
        <lane id=":JA14_0_1" index="1" speed="13.89" length="0.17" shape="11137.49,5136.36 11137.65,5136.38"/>
        <lane id=":JA14_0_2" index="2" speed="13.89" length="0.17" shape="11138.04,5133.21 11138.10,5133.21"/>
    </edge>
    <edge id=":JA15_0" function="internal">
        <lane id=":JA15_0_0" index="0" speed="6.18" length="9.05" shape="11111.33,5132.27 11113.53,5133.54 11114.66,5135.18 11114.72,5137.16 11113.72,5139.50"/>
    </edge>
    <edge id=":JA15_1" function="internal">
        <lane id=":JA15_1_0" index="0" speed="7.03" length="12.04" shape="11111.33,5132.27 11114.82,5134.10 11116.84,5136.20 11117.39,5138.55 11116.46,5141.16"/>
    </edge>
    <edge id=":JA15_2" function="internal">
        <lane id=":JA15_2_0" index="0" speed="13.89" length="17.07" shape="11111.33,5132.27 11116.18,5134.33 11119.51,5135.77 11122.93,5136.87 11128.07,5137.94"/>
        <lane id=":JA15_2_1" index="1" speed="13.89" length="17.07" shape="11112.53,5129.30 11117.19,5131.29 11120.39,5132.69 11123.69,5133.76 11128.62,5134.79"/>
        <lane id=":JA15_2_2" index="2" speed="13.89" length="17.07" shape="11113.73,5126.33 11118.21,5128.25 11121.28,5129.60 11124.44,5130.64 11129.18,5131.64"/>
    </edge>
    <edge id=":JA17_0" function="internal">
        <lane id=":JA17_0_0" index="0" speed="13.89" length="0.45" shape="11160.98,5125.74 11160.93,5125.74 11160.90,5125.74 11160.87,5125.74 11160.83,5125.73"/>
        <lane id=":JA17_0_1" index="1" speed="13.89" length="0.45" shape="11160.89,5128.94 11160.76,5128.94 11160.67,5128.93 11160.58,5128.93 11160.45,5128.91"/>
        <lane id=":JA17_0_2" index="2" speed="13.89" length="0.45" shape="11160.81,5132.14 11160.59,5132.14 11160.44,5132.13 11160.29,5132.11 11160.07,5132.09"/>
    </edge>
    <edge id=":JA18_0" function="internal">
        <lane id=":JA18_0_0" index="0" speed="13.89" length="3.33" shape="11157.00,5142.33 11160.53,5142.81"/>
        <lane id=":JA18_0_1" index="1" speed="13.89" length="3.33" shape="11157.45,5139.17 11160.75,5139.62"/>
        <lane id=":JA18_0_2" index="2" speed="13.89" length="3.33" shape="11157.90,5136.00 11160.98,5136.43"/>
    </edge>
    <edge id=":JA19_0" function="internal">
        <lane id=":JA19_0_0" index="0" speed="13.89" length="0.36" shape="11172.08,5126.03 11171.96,5126.03"/>
        <lane id=":JA19_0_1" index="1" speed="13.89" length="0.36" shape="11172.24,5129.23 11171.87,5129.23"/>
        <lane id=":JA19_0_2" index="2" speed="13.89" length="0.36" shape="11172.39,5132.42 11171.79,5132.43"/>
    </edge>
    <edge id=":JA2_0" function="internal">
        <lane id=":JA2_0_0" index="0" speed="13.89" length="9.42" shape="10953.00,5050.49 10950.20,5049.41 10948.19,5048.89 10946.11,5048.79 10943.11,5049.00"/>
        <lane id=":JA2_0_1" index="1" speed="13.89" length="9.42" shape="10951.81,5053.46 10949.42,5052.54 10947.70,5052.09 10945.93,5052.01 10943.38,5052.19"/>
    </edge>
    <edge id=":JA20_0" function="internal">
        <lane id=":JA20_0_0" index="0" speed="13.89" length="2.42" shape="11169.51,5143.44 11172.15,5143.67"/>
        <lane id=":JA20_0_1" index="1" speed="13.89" length="2.42" shape="11169.73,5140.25 11172.15,5140.47"/>
        <lane id=":JA20_0_2" index="2" speed="13.89" length="2.42" shape="11169.96,5137.06 11172.15,5137.27"/>
    </edge>
    <edge id=":JA21_0" function="internal">
        <lane id=":JA21_0_0" index="0" speed="6.90" length="8.97" shape="11180.22,5148.90 11180.44,5146.44 11181.32,5144.53 11182.86,5143.17 11185.06,5142.36"/>
    </edge>
    <edge id=":JA21_1" function="internal">
        <lane id=":JA21_1_0" index="0" speed="6.26" length="8.02" shape="11172.35,5143.67 11174.31,5144.01 11175.74,5145.01 11176.65,5146.69 11177.03,5149.03"/>
    </edge>
    <edge id=":JA21_2" function="internal">
        <lane id=":JA21_2_0" index="0" speed="13.89" length="12.16" shape="11172.35,5143.67 11176.15,5143.65 11178.76,5143.51 11181.34,5143.13 11185.06,5142.36"/>
        <lane id=":JA21_2_1" index="1" speed="13.89" length="12.16" shape="11172.35,5140.47 11175.95,5140.45 11178.42,5140.32 11180.87,5139.96 11184.40,5139.23"/>
        <lane id=":JA21_2_2" index="2" speed="13.89" length="12.16" shape="11172.35,5137.27 11175.75,5137.25 11178.09,5137.13 11180.40,5136.78 11183.73,5136.10"/>
    </edge>
    <edge id=":JA22_0" function="internal">
        <lane id=":JA22_0_0" index="0" speed="13.89" length="0.64" shape="11179.57,5125.65 11179.51,5125.66 11179.47,5125.66 11179.42,5125.67 11179.36,5125.67"/>
        <lane id=":JA22_0_1" index="1" speed="13.89" length="0.64" shape="11180.16,5128.79 11179.97,5128.83 11179.84,5128.85 11179.71,5128.86 11179.52,5128.87"/>
        <lane id=":JA22_0_2" index="2" speed="13.89" length="0.64" shape="11180.74,5131.94 11180.43,5132.00 11180.21,5132.03 11180.00,5132.05 11179.68,5132.06"/>
    </edge>
    <edge id=":JA23_0" function="internal">
        <lane id=":JA23_0_0" index="0" speed="13.89" length="0.56" shape="11189.61,5123.77 11189.56,5123.79 11189.52,5123.80 11189.48,5123.81 11189.43,5123.82"/>
        <lane id=":JA23_0_1" index="1" speed="13.89" length="0.56" shape="11190.56,5126.83 11190.40,5126.88 11190.29,5126.91 11190.17,5126.93 11190.01,5126.96"/>
        <lane id=":JA23_0_2" index="2" speed="13.89" length="0.56" shape="11191.50,5129.89 11191.24,5129.97 11191.05,5130.02 11190.87,5130.06 11190.60,5130.11"/>
    </edge>
    <edge id=":JA24_0" function="internal">
        <lane id=":JA24_0_0" index="0" speed="13.89" length="0.36" shape="11188.26,5141.68 11188.51,5141.63"/>
        <lane id=":JA24_0_1" index="1" speed="13.89" length="0.36" shape="11187.60,5138.55 11187.95,5138.48"/>
        <lane id=":JA24_0_2" index="2" speed="13.89" length="0.36" shape="11186.93,5135.42 11187.40,5135.33"/>
    </edge>
    <edge id=":JA25_0" function="internal">
        <lane id=":JA25_0_0" index="0" speed="13.89" length="0.36" shape="11198.23,5121.10 11198.11,5121.14"/>
        <lane id=":JA25_0_1" index="1" speed="13.89" length="0.36" shape="11199.40,5124.07 11199.06,5124.19"/>
        <lane id=":JA25_0_2" index="2" speed="13.89" length="0.36" shape="11200.58,5127.05 11200.01,5127.25"/>
    </edge>
    <edge id=":JA26_0" function="internal">
        <lane id=":JA26_0_0" index="0" speed="13.89" length="3.52" shape="11198.61,5139.86 11199.74,5139.68 11200.52,5139.58 11201.29,5139.44 11202.40,5139.15"/>
        <lane id=":JA26_0_1" index="1" speed="13.89" length="3.52" shape="11198.06,5136.71 11199.09,5136.55 11199.80,5136.46 11200.50,5136.33 11201.51,5136.07"/>
        <lane id=":JA26_0_2" index="2" speed="13.89" length="3.52" shape="11197.50,5133.55 11198.43,5133.41 11199.08,5133.34 11199.71,5133.23 11200.62,5133.00"/>
    </edge>
    <edge id=":JA27_0" function="internal">
        <lane id=":JA27_0_0" index="0" speed="13.89" length="0.38" shape="11209.69,5116.56 11209.45,5116.66"/>
        <lane id=":JA27_0_1" index="1" speed="13.89" length="0.38" shape="11210.98,5119.49 11210.63,5119.64"/>
        <lane id=":JA27_0_2" index="2" speed="13.89" length="0.38" shape="11212.26,5122.42 11211.80,5122.62"/>
    </edge>
    <edge id=":JA28_0" function="internal">
        <lane id=":JA28_0_0" index="0" speed="13.89" length="0.52" shape="11209.56,5137.08 11209.81,5137.00 11209.98,5136.95 11210.14,5136.89 11210.38,5136.79"/>
        <lane id=":JA28_0_1" index="1" speed="13.89" length="0.52" shape="11208.67,5134.00 11208.82,5133.96 11208.92,5133.93 11209.02,5133.89 11209.17,5133.83"/>
        <lane id=":JA28_0_2" index="2" speed="13.89" length="0.52" shape="11207.78,5130.93 11207.83,5130.91 11207.87,5130.90 11207.90,5130.89 11207.95,5130.87"/>
    </edge>
    <edge id=":JA3_0" function="internal">
        <lane id=":JA3_0_0" index="0" speed="13.89" length="1.85" shape="10945.64,5065.45 10945.82,5065.45 10945.94,5065.47 10946.06,5065.50 10946.24,5065.57"/>
        <lane id=":JA3_0_1" index="1" speed="9.36" length="1.85" shape="10945.63,5062.25 10946.18,5062.26 10946.56,5062.30 10946.92,5062.40 10947.43,5062.60"/>
        <lane id=":JA3_0_2" index="2" speed="11.96" length="1.85" shape="10945.63,5059.05 10946.55,5059.06 10947.17,5059.13 10947.78,5059.30 10948.63,5059.63"/>
    </edge>
    <edge id=":JA5_0" function="internal">
        <lane id=":JA5_0_0" index="0" speed="5.61" length="9.31" shape="10996.65,5064.72 10994.19,5063.32 10993.26,5061.75 10993.84,5060.02 10995.95,5058.13"/>
    </edge>
    <edge id=":JA5_1" function="internal">
        <lane id=":JA5_1_0" index="0" speed="13.89" length="11.77" shape="10996.65,5064.72 10985.75,5060.23"/>
        <lane id=":JA5_1_1" index="1" speed="13.89" length="11.77" shape="10995.44,5067.68 10984.55,5063.20"/>
        <lane id=":JA5_1_2" index="2" speed="13.89" length="11.77" shape="10994.22,5070.64 10983.36,5066.17"/>
    </edge>
    <edge id=":JA6_0" function="internal">
        <lane id=":JA6_0_0" index="0" speed="7.88" length="7.51" shape="10985.25,5085.92 10987.28,5084.74 10989.13,5084.05 10990.79,5083.86 10992.27,5084.17"/>
    </edge>
    <edge id=":JA6_1" function="internal">
        <lane id=":JA6_1_0" index="0" speed="13.89" length="8.12" shape="10984.74,5081.13 10992.27,5084.17"/>
        <lane id=":JA6_1_1" index="1" speed="13.89" length="8.12" shape="10985.94,5078.16 10993.47,5081.20"/>
        <lane id=":JA6_1_2" index="2" speed="13.89" length="8.12" shape="10987.14,5075.19 10994.67,5078.23"/>
    </edge>
    <edge id=":JA8_0" function="internal">
        <lane id=":JA8_0_0" index="0" speed="6.45" length="9.03" shape="10995.07,5085.30 10997.22,5086.55 10998.43,5088.18 10998.71,5090.19 10998.05,5092.59"/>
    </edge>
    <edge id=":JA8_1" function="internal">
        <lane id=":JA8_1_0" index="0" speed="13.89" length="11.20" shape="10995.07,5085.30 11005.45,5089.50"/>
        <lane id=":JA8_1_1" index="1" speed="13.89" length="11.20" shape="10996.27,5082.33 11006.65,5086.53"/>
        <lane id=":JA8_1_2" index="2" speed="13.89" length="11.20" shape="10997.47,5079.37 11007.85,5083.56"/>
    </edge>
    <edge id=":Merge_1_0" function="internal">
        <lane id=":Merge_1_0_0" index="0" speed="13.89" length="0.30" shape="13283.03,4373.81 13283.35,4373.79"/>
        <lane id=":Merge_1_0_1" index="1" speed="13.89" length="0.30" shape="13282.82,4370.62 13283.11,4370.60"/>
        <lane id=":Merge_1_0_2" index="2" speed="13.89" length="0.30" shape="13282.60,4367.42 13282.87,4367.41"/>
    </edge>
    <edge id=":Merge_2_0" function="internal">
        <lane id=":Merge_2_0_0" index="0" speed="13.89" length="0.29" shape="13273.78,4354.51 13273.44,4354.53"/>
        <lane id=":Merge_2_0_1" index="1" speed="13.89" length="0.29" shape="13273.90,4357.71 13273.61,4357.72"/>
        <lane id=":Merge_2_0_2" index="2" speed="13.89" length="0.29" shape="13274.02,4360.91 13273.79,4360.92"/>
    </edge>
    <edge id=":N10_Suk45_0" function="internal">
        <lane id=":N10_Suk45_0_0" index="0" speed="13.89" length="0.29" shape="11992.52,6055.22 11992.71,6055.08"/>
        <lane id=":N10_Suk45_0_1" index="1" speed="13.89" length="0.29" shape="11990.59,6052.66 11990.82,6052.49"/>
        <lane id=":N10_Suk45_0_2" index="2" speed="13.89" length="0.29" shape="11988.67,6050.11 11988.94,6049.91"/>
    </edge>
    <edge id=":N11_Suk47_0" function="internal">
        <lane id=":N11_Suk47_0_0" index="0" speed="13.89" length="0.30" shape="12104.05,5973.82 12104.30,5973.64"/>
        <lane id=":N11_Suk47_0_1" index="1" speed="13.89" length="0.30" shape="12102.17,5971.24 12102.41,5971.06"/>
        <lane id=":N11_Suk47_0_2" index="2" speed="13.89" length="0.30" shape="12100.28,5968.65 12100.52,5968.47"/>
    </edge>
    <edge id=":N12_Suk49_C3_0" function="internal">
        <lane id=":N12_Suk49_C3_0_0" index="0" speed="13.89" length="0.10" shape="12228.31,5883.17 12228.31,5883.17"/>
        <lane id=":N12_Suk49_C3_0_1" index="1" speed="13.89" length="0.10" shape="12226.43,5880.59 12226.43,5880.59"/>
        <lane id=":N12_Suk49_C3_0_2" index="2" speed="13.89" length="0.10" shape="12224.54,5878.00 12224.54,5878.00"/>
    </edge>
    <edge id=":N13_Suk51_0" function="internal">
        <lane id=":N13_Suk51_0_0" index="0" speed="13.89" length="0.10" shape="12353.27,5792.02 12353.27,5792.02"/>
        <lane id=":N13_Suk51_0_1" index="1" speed="13.89" length="0.10" shape="12351.39,5789.44 12351.39,5789.44"/>
        <lane id=":N13_Suk51_0_2" index="2" speed="13.89" length="0.10" shape="12349.50,5786.85 12349.50,5786.85"/>
    </edge>
    <edge id=":N14_Suk53_0" function="internal">
        <lane id=":N14_Suk53_0_0" index="0" speed="13.89" length="0.30" shape="12478.10,5700.96 12478.34,5700.79"/>
        <lane id=":N14_Suk53_0_1" index="1" speed="13.89" length="0.30" shape="12476.22,5698.38 12476.46,5698.20"/>
        <lane id=":N14_Suk53_0_2" index="2" speed="13.89" length="0.30" shape="12474.33,5695.79 12474.57,5695.61"/>
    </edge>
    <edge id=":N15_Suk55_J3_0" function="internal">
        <lane id=":N15_Suk55_J3_0_0" index="0" speed="13.89" length="0.30" shape="12662.92,5566.31 12663.17,5566.13"/>
        <lane id=":N15_Suk55_J3_0_1" index="1" speed="13.89" length="0.30" shape="12661.04,5563.73 12661.28,5563.55"/>
        <lane id=":N15_Suk55_J3_0_2" index="2" speed="13.89" length="0.30" shape="12659.15,5561.14 12659.39,5560.97"/>
    </edge>
    <edge id=":N16_Suk57_0" function="internal">
        <lane id=":N16_Suk57_0_0" index="0" speed="13.89" length="0.30" shape="12755.28,5498.85 12755.52,5498.67"/>
        <lane id=":N16_Suk57_0_1" index="1" speed="13.89" length="0.30" shape="12753.39,5496.26 12753.63,5496.09"/>
        <lane id=":N16_Suk57_0_2" index="2" speed="13.89" length="0.30" shape="12751.50,5493.68 12751.74,5493.50"/>
    </edge>
    <edge id=":N17_C3_Suk40_0" function="internal">
        <lane id=":N17_C3_Suk40_0_0" index="0" speed="13.89" length="0.30" shape="12835.50,5440.19 12835.75,5440.01"/>
        <lane id=":N17_C3_Suk40_0_1" index="1" speed="13.89" length="0.30" shape="12833.61,5437.61 12833.85,5437.43"/>
        <lane id=":N17_C3_Suk40_0_2" index="2" speed="13.89" length="0.30" shape="12831.72,5435.03 12831.95,5434.85"/>
    </edge>
    <edge id=":N1_Suk33/1_0" function="internal">