<?xml version="1.0" encoding="UTF-8"?>

<!-- generated on 06/23/20 16:51:13 by Eclipse SUMO netedit Version 1.6.0
<configuration xmlns:xsi="http://www.w3.org/2001/XMLSchema-instance" xsi:noNamespaceSchemaLocation="http://sumo.dlr.de/xsd/netconvertConfiguration.xsd">

    <input>
        <sumo-net-file value="C:\Users\sen_s\OneDrive\Desktop\CU%20Lecture%20and%20works\Study\Third%20Year\Term%202\Intern\My%20Data\Rama4_Skhumvit_V5_Connection.net.xml"/>
    </input>

    <output>
        <output-file value="C:\Users\sen_s\OneDrive\Desktop\CU%20Lecture%20and%20works\Study\Third%20Year\Term%202\Intern\My%20Data\Rama4_Skhumvit_V5_Connection.net.xml"/>
    </output>

    <processing>
        <geometry.min-radius.fix.railways value="false"/>
        <geometry.max-grade.fix value="false"/>
        <offset.disable-normalization value="true"/>
        <lefthand value="true"/>
    </processing>

    <junctions>
        <no-turnarounds value="true"/>
        <junctions.corner-detail value="5"/>
        <junctions.limit-turn-speed value="5.5"/>
        <rectangular-lane-cut value="false"/>
    </junctions>

    <pedestrian>
        <walkingareas value="false"/>
    </pedestrian>

    <report>
        <aggregate-warnings value="5"/>
    </report>

</configuration>
-->

<net version="1.6" junctionCornerDetail="5" lefthand="true" limitTurnSpeed="5.50" xmlns:xsi="http://www.w3.org/2001/XMLSchema-instance" xsi:noNamespaceSchemaLocation="http://sumo.dlr.de/xsd/net_file.xsd">

    <location netOffset="0.00,0.00" convBoundary="5700.94,1015.93,14478.43,6628.74" origBoundary="-10000000000.00,-10000000000.00,10000000000.00,10000000000.00" projParameter="!"/>

    <edge id=":900020258_0" function="internal">
        <lane id=":900020258_0_0" index="0" speed="7.91" length="23.16" shape="10908.24,5048.14 10903.96,5053.45 10902.53,5059.12 10904.30,5063.63 10909.64,5065.47"/>
    </edge>
    <edge id=":900020258_1" function="internal">
        <lane id=":900020258_1_0" index="0" speed="5.87" length="10.59" shape="10909.60,5051.81 10905.69,5054.43 10904.39,5057.05 10905.70,5059.66 10909.63,5062.27"/>
        <lane id=":900020258_1_1" index="1" speed="4.00" length="10.59" shape="10909.61,5055.02 10908.09,5056.03 10907.59,5057.05 10908.10,5058.06 10909.62,5059.07"/>
    </edge>
    <edge id=":Book_Start_1_0" function="internal">
        <lane id=":Book_Start_1_0_0" index="0" speed="13.89" length="0.30" shape="13315.53,4371.34 13315.86,4371.31"/>
        <lane id=":Book_Start_1_0_1" index="1" speed="13.89" length="0.30" shape="13315.29,4368.15 13315.58,4368.12"/>
        <lane id=":Book_Start_1_0_2" index="2" speed="13.89" length="0.30" shape="13315.05,4364.95 13315.31,4364.93"/>
    </edge>
    <edge id=":Book_Start_2_0" function="internal">
        <lane id=":Book_Start_2_0_0" index="0" speed="13.89" length="0.29" shape="13311.25,4353.08 13310.91,4353.09"/>
        <lane id=":Book_Start_2_0_1" index="1" speed="13.89" length="0.29" shape="13311.33,4356.28 13311.04,4356.29"/>
        <lane id=":Book_Start_2_0_2" index="2" speed="13.89" length="0.29" shape="13311.40,4359.48 13311.16,4359.49"/>
    </edge>
    <edge id=":Cluster_N12_Suk49_C3_Q3_Suk32_0" function="internal">
        <lane id=":Cluster_N12_Suk49_C3_Q3_Suk32_0_0" index="0" speed="13.89" length="14.90" shape="12216.81,5855.08 12205.13,5863.59"/>
        <lane id=":Cluster_N12_Suk49_C3_Q3_Suk32_0_1" index="1" speed="13.89" length="14.90" shape="12216.81,5855.08 12213.60,5858.03 12211.91,5860.62 12210.23,5863.21 12207.02,5866.18"/>
        <lane id=":Cluster_N12_Suk49_C3_Q3_Suk32_0_2" index="2" speed="13.89" length="14.90" shape="12216.81,5855.08 12213.78,5858.52 12212.86,5861.91 12211.94,5865.31 12208.91,5868.76"/>
        <lane id=":Cluster_N12_Suk49_C3_Q3_Suk32_0_3" index="3" speed="13.89" length="14.90" shape="12218.70,5857.67 12214.89,5859.81 12211.91,5860.62 12208.93,5861.44 12205.13,5863.59"/>
        <lane id=":Cluster_N12_Suk49_C3_Q3_Suk32_0_4" index="4" speed="13.89" length="14.90" shape="12218.70,5857.67 12207.02,5866.18"/>
        <lane id=":Cluster_N12_Suk49_C3_Q3_Suk32_0_5" index="5" speed="13.89" length="14.90" shape="12218.70,5857.67 12215.48,5860.62 12213.80,5863.20 12212.12,5865.79 12208.91,5868.76"/>
        <lane id=":Cluster_N12_Suk49_C3_Q3_Suk32_0_6" index="6" speed="13.89" length="14.90" shape="12220.58,5860.25 12208.91,5868.76"/>
    </edge>
    <edge id=":Cluster_N12_Suk49_C3_Q3_Suk32_7" function="internal">
        <lane id=":Cluster_N12_Suk49_C3_Q3_Suk32_7_0" index="0" speed="11.75" length="18.38" shape="12220.58,5860.25 12218.48,5864.00 12219.42,5869.98 12222.92,5877.21"/>
    </edge>
    <edge id=":Cluster_N12_Suk49_C3_Q3_Suk32_8" function="internal">
        <lane id=":Cluster_N12_Suk49_C3_Q3_Suk32_8_0" index="0" speed="8.29" length="20.88" shape="12220.58,5860.25 12216.99,5870.01 12218.06,5876.37 12221.58,5878.19"/>
        <lane id=":Cluster_N12_Suk49_C3_Q3_Suk32_8_1" index="1" speed="7.74" length="20.88" shape="12220.58,5860.25 12217.49,5868.66 12218.41,5874.14 12223.35,5876.69 12223.65,5876.67"/>
        <lane id=":Cluster_N12_Suk49_C3_Q3_Suk32_8_2" index="2" speed="7.14" length="20.88" shape="12220.58,5860.25 12217.99,5867.30 12218.76,5871.90 12222.90,5874.04 12227.53,5873.84"/>
    </edge>
    <edge id=":Cluster_N12_Suk49_C3_Q3_Suk32_27" function="internal">
        <lane id=":Cluster_N12_Suk49_C3_Q3_Suk32_27_0" index="0" speed="11.75" length="13.66" shape="12222.92,5877.21 12223.39,5878.18 12230.41,5888.61"/>
    </edge>
    <edge id=":Cluster_N12_Suk49_C3_Q3_Suk32_28" function="internal">
        <lane id=":Cluster_N12_Suk49_C3_Q3_Suk32_28_0" index="0" speed="8.29" length="12.89" shape="12221.58,5878.19 12223.79,5879.33 12234.18,5878.89"/>
    </edge>
    <edge id=":Cluster_N12_Suk49_C3_Q3_Suk32_29" function="internal">
        <lane id=":Cluster_N12_Suk49_C3_Q3_Suk32_29_0" index="0" speed="7.74" length="8.65" shape="12223.65,5876.67 12232.30,5876.31"/>
    </edge>
    <edge id=":Cluster_N12_Suk49_C3_Q3_Suk32_30" function="internal">
        <lane id=":Cluster_N12_Suk49_C3_Q3_Suk32_30_0" index="0" speed="7.14" length="2.88" shape="12227.53,5873.84 12230.41,5873.72"/>
    </edge>
    <edge id=":Cluster_N12_Suk49_C3_Q3_Suk32_11" function="internal">
        <lane id=":Cluster_N12_Suk49_C3_Q3_Suk32_11_0" index="0" speed="6.49" length="9.03" shape="12232.98,5886.71 12231.81,5884.53 12231.62,5882.50 12232.41,5880.62 12234.18,5878.89"/>
    </edge>
    <edge id=":Cluster_N12_Suk49_C3_Q3_Suk32_12" function="internal">
        <lane id=":Cluster_N12_Suk49_C3_Q3_Suk32_12_0" index="0" speed="12.32" length="34.95" shape="12232.98,5886.71 12224.25,5875.81 12217.01,5868.75 12211.27,5865.54 12207.02,5866.18"/>
    </edge>
    <edge id=":Cluster_N12_Suk49_C3_Q3_Suk32_13" function="internal">
        <lane id=":Cluster_N12_Suk49_C3_Q3_Suk32_13_0" index="0" speed="11.79" length="31.94" shape="12232.98,5886.71 12225.08,5876.93 12218.43,5870.68 12213.04,5867.96 12208.91,5868.76"/>
    </edge>
    <edge id=":Cluster_N12_Suk49_C3_Q3_Suk32_14" function="internal">
        <lane id=":Cluster_N12_Suk49_C3_Q3_Suk32_14_0" index="0" speed="6.53" length="9.07" shape="12222.55,5887.38 12224.73,5886.22 12226.77,5886.04 12228.66,5886.84 12230.41,5888.61"/>
    </edge>
    <edge id=":Cluster_N12_Suk49_C3_Q3_Suk32_15" function="internal">
        <lane id=":Cluster_N12_Suk49_C3_Q3_Suk32_15_0" index="0" speed="13.89" length="15.01" shape="12222.55,5887.38 12234.18,5878.89"/>
        <lane id=":Cluster_N12_Suk49_C3_Q3_Suk32_15_1" index="1" speed="13.89" length="15.01" shape="12222.55,5887.38 12225.75,5884.43 12227.42,5881.84 12229.10,5879.26 12232.30,5876.31"/>
        <lane id=":Cluster_N12_Suk49_C3_Q3_Suk32_15_2" index="2" speed="13.89" length="15.01" shape="12222.55,5887.38 12225.56,5883.94 12226.48,5880.55 12227.39,5877.16 12230.41,5873.72"/>
        <lane id=":Cluster_N12_Suk49_C3_Q3_Suk32_15_3" index="3" speed="13.89" length="15.01" shape="12220.66,5884.80 12224.45,5882.65 12227.42,5881.85 12230.39,5881.04 12234.18,5878.89"/>
        <lane id=":Cluster_N12_Suk49_C3_Q3_Suk32_15_4" index="4" speed="13.89" length="15.01" shape="12220.66,5884.80 12232.30,5876.31"/>
        <lane id=":Cluster_N12_Suk49_C3_Q3_Suk32_15_5" index="5" speed="13.89" length="15.01" shape="12220.66,5884.80 12223.86,5881.85 12225.53,5879.26 12227.21,5876.68 12230.41,5873.72"/>
        <lane id=":Cluster_N12_Suk49_C3_Q3_Suk32_15_6" index="6" speed="13.89" length="15.01" shape="12218.77,5882.22 12222.97,5880.39 12226.47,5880.56 12229.98,5880.72 12234.18,5878.89"/>
        <lane id=":Cluster_N12_Suk49_C3_Q3_Suk32_15_7" index="7" speed="13.89" length="15.01" shape="12218.77,5882.22 12222.56,5880.07 12225.53,5879.26 12228.50,5878.46 12232.30,5876.31"/>
        <lane id=":Cluster_N12_Suk49_C3_Q3_Suk32_15_8" index="8" speed="13.89" length="15.01" shape="12218.77,5882.22 12230.41,5873.72"/>
    </edge>
    <edge id=":Cluster_N12_Suk49_C3_Q3_Suk32_24" function="internal">
        <lane id=":Cluster_N12_Suk49_C3_Q3_Suk32_24_0" index="0" speed="8.30" length="20.87" shape="12218.77,5882.22 12222.34,5872.45 12221.26,5866.09 12217.76,5864.29"/>
        <lane id=":Cluster_N12_Suk49_C3_Q3_Suk32_24_1" index="1" speed="7.74" length="20.87" shape="12218.77,5882.22 12221.84,5873.80 12220.91,5868.33 12215.97,5865.78 12215.69,5865.80"/>
        <lane id=":Cluster_N12_Suk49_C3_Q3_Suk32_24_2" index="2" speed="7.14" length="20.87" shape="12218.77,5882.22 12221.35,5875.16 12220.57,5870.56 12216.42,5868.43 12211.80,5868.63"/>
    </edge>
    <edge id=":Cluster_N12_Suk49_C3_Q3_Suk32_31" function="internal">
        <lane id=":Cluster_N12_Suk49_C3_Q3_Suk32_31_0" index="0" speed="8.30" length="12.92" shape="12217.76,5864.29 12215.52,5863.14 12205.13,5863.59"/>
    </edge>
    <edge id=":Cluster_N12_Suk49_C3_Q3_Suk32_32" function="internal">
        <lane id=":Cluster_N12_Suk49_C3_Q3_Suk32_32_0" index="0" speed="7.74" length="8.68" shape="12215.69,5865.80 12207.02,5866.18"/>
    </edge>
    <edge id=":Cluster_N12_Suk49_C3_Q3_Suk32_33" function="internal">
        <lane id=":Cluster_N12_Suk49_C3_Q3_Suk32_33_0" index="0" speed="7.14" length="2.89" shape="12211.80,5868.63 12208.91,5868.76"/>
    </edge>
    <edge id=":Cluster_N17_C3_Suk40_Q8_0" function="internal">
        <lane id=":Cluster_N17_C3_Suk40_Q8_0_0" index="0" speed="5.57" length="9.36" shape="12833.46,5407.61 12830.96,5409.01 12829.16,5408.99 12828.07,5407.55 12827.69,5404.70"/>
    </edge>
    <edge id=":Cluster_N17_C3_Suk40_Q8_1" function="internal">
        <lane id=":Cluster_N17_C3_Suk40_Q8_1_0" index="0" speed="6.54" length="13.51" shape="12833.46,5407.61 12829.57,5409.89 12826.78,5410.18 12825.08,5408.45 12824.49,5404.73"/>
    </edge>
    <edge id=":Cluster_N17_C3_Suk40_Q8_2" function="internal">
        <lane id=":Cluster_N17_C3_Suk40_Q8_2_0" index="0" speed="13.89" length="23.76" shape="12833.46,5407.61 12814.52,5421.63"/>
        <lane id=":Cluster_N17_C3_Suk40_Q8_2_1" index="1" speed="13.89" length="23.76" shape="12835.31,5410.22 12829.38,5413.99 12824.91,5415.92 12820.44,5417.86 12814.52,5421.63"/>
        <lane id=":Cluster_N17_C3_Suk40_Q8_2_2" index="2" speed="13.89" length="23.76" shape="12835.31,5410.22 12816.43,5424.20"/>
        <lane id=":Cluster_N17_C3_Suk40_Q8_2_3" index="3" speed="13.89" length="23.76" shape="12835.31,5410.22 12829.98,5414.79 12826.82,5418.49 12823.66,5422.19 12818.34,5426.77"/>
        <lane id=":Cluster_N17_C3_Suk40_Q8_2_4" index="4" speed="13.89" length="23.76" shape="12837.16,5412.84 12830.87,5416.24 12825.83,5417.23 12820.80,5418.22 12814.52,5421.63"/>
        <lane id=":Cluster_N17_C3_Suk40_Q8_2_5" index="5" speed="13.89" length="23.76" shape="12837.16,5412.84 12831.25,5416.59 12826.79,5418.51 12822.34,5420.44 12816.43,5424.20"/>
        <lane id=":Cluster_N17_C3_Suk40_Q8_2_6" index="6" speed="13.89" length="23.76" shape="12837.16,5412.84 12818.34,5426.77"/>
    </edge>
    <edge id=":Cluster_N17_C3_Suk40_Q8_9" function="internal">
        <lane id=":Cluster_N17_C3_Suk40_Q8_9_0" index="0" speed="13.89" length="23.28" shape="12830.31,5442.87 12848.97,5429.55"/>
        <lane id=":Cluster_N17_C3_Suk40_Q8_9_1" index="1" speed="13.89" length="23.28" shape="12830.31,5442.87 12835.52,5438.40 12838.65,5434.81 12841.82,5431.27 12847.13,5426.94"/>
        <lane id=":Cluster_N17_C3_Suk40_Q8_9_2" index="2" speed="13.89" length="23.28" shape="12830.31,5442.87 12835.31,5437.93 12837.73,5433.50 12840.18,5429.12 12845.28,5424.32"/>
        <lane id=":Cluster_N17_C3_Suk40_Q8_9_3" index="3" speed="13.89" length="23.28" shape="12828.40,5440.30 12834.21,5436.63 12838.62,5434.83 12843.07,5433.08 12848.97,5429.55"/>
        <lane id=":Cluster_N17_C3_Suk40_Q8_9_4" index="4" speed="13.89" length="23.28" shape="12828.40,5440.30 12847.13,5426.94"/>
        <lane id=":Cluster_N17_C3_Suk40_Q8_9_5" index="5" speed="13.89" length="23.28" shape="12828.40,5440.30 12833.63,5435.81 12836.77,5432.22 12839.95,5428.67 12845.28,5424.32"/>
        <lane id=":Cluster_N17_C3_Suk40_Q8_9_6" index="6" speed="13.89" length="23.28" shape="12826.49,5437.73 12845.28,5424.32"/>
    </edge>
    <edge id=":Cluster_N17_C3_Suk40_Q8_16" function="internal">
        <lane id=":Cluster_N17_C3_Suk40_Q8_16_0" index="0" speed="13.89" length="15.97" shape="12826.49,5437.73 12827.13,5435.25 12827.54,5428.91 12827.67,5421.86"/>
    </edge>
    <edge id=":Cluster_N17_C3_Suk40_Q8_17" function="internal">
        <lane id=":Cluster_N17_C3_Suk40_Q8_17_0" index="0" speed="13.89" length="14.03" shape="12826.49,5437.73 12825.74,5436.14 12825.15,5430.11 12824.90,5423.90"/>
    </edge>
    <edge id=":Cluster_N17_C3_Suk40_Q8_18" function="internal">
        <lane id=":Cluster_N17_C3_Suk40_Q8_18_0" index="0" speed="7.77" length="16.77" shape="12826.49,5437.73 12829.54,5429.22 12828.56,5423.70 12826.55,5422.68"/>
        <lane id=":Cluster_N17_C3_Suk40_Q8_18_1" index="1" speed="7.17" length="16.77" shape="12826.49,5437.73 12829.05,5430.58 12828.23,5425.94 12824.62,5424.11"/>
        <lane id=":Cluster_N17_C3_Suk40_Q8_18_2" index="2" speed="6.52" length="16.77" shape="12826.49,5437.73 12828.56,5431.93 12827.90,5428.17 12824.49,5426.45 12821.23,5426.62"/>
    </edge>
    <edge id=":Cluster_N17_C3_Suk40_Q8_21" function="internal">
        <lane id=":Cluster_N17_C3_Suk40_Q8_21_0" index="0" speed="13.89" length="17.16" shape="12827.67,5421.86 12827.72,5418.73 12827.69,5404.70"/>
    </edge>
    <edge id=":Cluster_N17_C3_Suk40_Q8_22" function="internal">
        <lane id=":Cluster_N17_C3_Suk40_Q8_22_0" index="0" speed="13.89" length="19.18" shape="12824.90,5423.90 12824.73,5419.64 12824.49,5404.73"/>
    </edge>
    <edge id=":Cluster_N17_C3_Suk40_Q8_23" function="internal">
        <lane id=":Cluster_N17_C3_Suk40_Q8_23_0" index="0" speed="7.77" length="12.40" shape="12826.55,5422.68 12823.55,5421.17 12814.52,5421.63"/>
    </edge>
    <edge id=":Cluster_N17_C3_Suk40_Q8_24" function="internal">
        <lane id=":Cluster_N17_C3_Suk40_Q8_24_0" index="0" speed="7.17" length="8.27" shape="12824.62,5424.11 12824.02,5423.81 12816.43,5424.20"/>
    </edge>
    <edge id=":Cluster_N17_C3_Suk40_Q8_25" function="internal">
        <lane id=":Cluster_N17_C3_Suk40_Q8_25_0" index="0" speed="6.52" length="2.89" shape="12821.23,5426.62 12818.34,5426.77"/>
    </edge>
    <edge id=":Cluster_Sen_17_13_0" function="internal">
        <lane id=":Cluster_Sen_17_13_0_0" index="0" speed="13.89" length="14.80" shape="12467.37,4557.35 12453.86,4563.36"/>
        <lane id=":Cluster_Sen_17_13_0_1" index="1" speed="13.89" length="14.80" shape="12468.67,4560.28 12455.14,4566.29"/>
        <lane id=":Cluster_Sen_17_13_0_2" index="2" speed="13.89" length="14.80" shape="12469.97,4563.20 12456.42,4569.23"/>
    </edge>
    <edge id=":Cluster_Sen_17_13_3" function="internal">
        <lane id=":Cluster_Sen_17_13_3_0" index="0" speed="11.46" length="5.76" shape="12469.97,4563.20 12468.50,4565.08 12467.73,4568.36"/>
    </edge>
    <edge id=":Cluster_Sen_17_13_14" function="internal">
        <lane id=":Cluster_Sen_17_13_14_0" index="0" speed="11.46" length="15.50" shape="12467.73,4568.36 12467.54,4569.14 12467.11,4575.39 12467.20,4583.83"/>
    </edge>
    <edge id=":Cluster_Sen_17_13_4" function="internal">
        <lane id=":Cluster_Sen_17_13_4_0" index="0" speed="8.46" length="11.33" shape="12470.40,4583.71 12470.56,4580.23 12471.35,4577.45 12472.75,4575.36 12474.76,4573.98"/>
    </edge>
    <edge id=":Cluster_Sen_17_13_5" function="internal">
        <lane id=":Cluster_Sen_17_13_5_0" index="0" speed="9.21" length="13.54" shape="12470.40,4583.71 12470.44,4578.75 12470.96,4574.99 12471.97,4572.43 12473.46,4571.06"/>
    </edge>
    <edge id=":Cluster_Sen_17_13_6" function="internal">
        <lane id=":Cluster_Sen_17_13_6_0" index="0" speed="9.96" length="15.96" shape="12470.40,4583.71 12470.31,4577.28 12470.57,4572.54 12471.19,4569.49 12472.16,4568.13"/>
    </edge>
    <edge id=":Cluster_Sen_17_13_7" function="internal">
        <lane id=":Cluster_Sen_17_13_7_0" index="0" speed="10.53" length="32.59" shape="12470.40,4583.71 12469.41,4573.59 12466.79,4565.95 12461.84,4562.10 12453.86,4563.36"/>
    </edge>
    <edge id=":Cluster_Sen_17_13_8" function="internal">
        <lane id=":Cluster_Sen_17_13_8_0" index="0" speed="9.94" length="28.95" shape="12470.40,4583.71 12469.47,4574.84 12467.01,4568.25 12462.43,4565.03 12455.14,4566.29"/>
    </edge>
    <edge id=":Cluster_Sen_17_13_9" function="internal">
        <lane id=":Cluster_Sen_17_13_9_0" index="0" speed="9.30" length="25.17" shape="12470.40,4583.71 12469.48,4576.11 12467.10,4570.60 12462.87,4568.03 12456.42,4569.23"/>
    </edge>
    <edge id=":Cluster_Sen_17_13_10" function="internal">
        <lane id=":Cluster_Sen_17_13_10_0" index="0" speed="5.83" length="9.12" shape="12461.16,4580.06 12463.72,4579.32 12465.57,4579.70 12466.73,4581.20 12467.20,4583.83"/>
    </edge>
    <edge id=":Cluster_Sen_17_13_11" function="internal">
        <lane id=":Cluster_Sen_17_13_11_0" index="0" speed="13.89" length="14.87" shape="12461.16,4580.06 12474.76,4573.98"/>
        <lane id=":Cluster_Sen_17_13_11_1" index="1" speed="13.89" length="14.87" shape="12459.88,4577.13 12473.46,4571.06"/>
        <lane id=":Cluster_Sen_17_13_11_2" index="2" speed="13.89" length="14.87" shape="12458.60,4574.19 12472.16,4568.13"/>
    </edge>
    <edge id=":Cluster_Sen_17_3_2_0" function="internal">
        <lane id=":Cluster_Sen_17_3_2_0_0" index="0" speed="6.83" length="9.39" shape="11613.62,4935.09 11611.26,4935.74 11609.16,4935.47 11607.33,4934.27 11605.77,4932.14"/>
    </edge>
    <edge id=":Cluster_Sen_17_3_2_1" function="internal">
        <lane id=":Cluster_Sen_17_3_2_1_0" index="0" speed="13.89" length="17.49" shape="11613.62,4935.09 11598.16,4942.18"/>
        <lane id=":Cluster_Sen_17_3_2_1_1" index="1" speed="13.89" length="17.49" shape="11613.62,4935.09 11609.19,4937.63 11606.54,4940.05 11603.91,4942.50 11599.50,4945.08"/>
        <lane id=":Cluster_Sen_17_3_2_1_2" index="2" speed="13.89" length="17.49" shape="11613.62,4935.09 11609.28,4938.13 11607.21,4941.51 11605.14,4944.90 11600.83,4947.99"/>
        <lane id=":Cluster_Sen_17_3_2_1_3" index="3" speed="13.89" length="17.49" shape="11614.93,4938.01 11610.08,4939.64 11606.53,4940.06 11602.98,4940.50 11598.16,4942.18"/>
        <lane id=":Cluster_Sen_17_3_2_1_4" index="4" speed="13.89" length="17.49" shape="11614.93,4938.01 11599.50,4945.08"/>
        <lane id=":Cluster_Sen_17_3_2_1_5" index="5" speed="13.89" length="17.49" shape="11614.93,4938.01 11610.50,4940.55 11607.86,4942.97 11605.23,4945.41 11600.83,4947.99"/>
        <lane id=":Cluster_Sen_17_3_2_1_6" index="6" speed="13.89" length="17.49" shape="11616.23,4940.94 11611.08,4942.15 11607.18,4941.52 11603.29,4940.91 11598.16,4942.18"/>
        <lane id=":Cluster_Sen_17_3_2_1_7" index="7" speed="13.89" length="17.49" shape="11616.23,4940.94 11611.40,4942.56 11607.85,4942.98 11604.31,4943.41 11599.50,4945.08"/>
        <lane id=":Cluster_Sen_17_3_2_1_8" index="8" speed="13.89" length="17.49" shape="11616.23,4940.94 11600.83,4947.99"/>
    </edge>
    <edge id=":Cluster_Sen_17_3_2_10" function="internal">
        <lane id=":Cluster_Sen_17_3_2_10_0" index="0" speed="9.80" length="6.36" shape="11617.54,4943.86 11613.50,4946.71 11612.88,4947.99"/>
    </edge>
    <edge id=":Cluster_Sen_17_3_2_11" function="internal">
        <lane id=":Cluster_Sen_17_3_2_11_0" index="0" speed="5.65" length="3.08" shape="11617.54,4943.86 11615.75,4946.69"/>
        <lane id=":Cluster_Sen_17_3_2_11_1" index="1" speed="4.79" length="3.08" shape="11617.54,4943.86 11615.94,4946.39 11615.93,4946.61"/>
        <lane id=":Cluster_Sen_17_3_2_11_2" index="2" speed="3.74" length="3.08" shape="11617.54,4943.86 11616.71,4945.17 11616.67,4946.13 11616.78,4946.23"/>
    </edge>
    <edge id=":Cluster_Sen_17_3_2_38" function="internal">
        <lane id=":Cluster_Sen_17_3_2_38_0" index="0" speed="9.80" length="15.24" shape="11612.88,4947.99 11611.50,4950.79 11611.53,4956.08 11613.59,4962.59"/>
    </edge>
    <edge id=":Cluster_Sen_17_3_2_39" function="internal">
        <lane id=":Cluster_Sen_17_3_2_39_0" index="0" speed="5.65" length="11.03" shape="11615.75,4946.69 11615.17,4947.61 11615.05,4950.36 11617.18,4952.11 11621.56,4952.85"/>
    </edge>
    <edge id=":Cluster_Sen_17_3_2_40" function="internal">
        <lane id=":Cluster_Sen_17_3_2_40_0" index="0" speed="4.79" length="6.49" shape="11615.93,4946.61 11615.86,4948.25 11617.30,4949.43 11620.25,4949.93"/>
    </edge>
    <edge id=":Cluster_Sen_17_3_2_41" function="internal">
        <lane id=":Cluster_Sen_17_3_2_41_0" index="0" speed="3.74" length="2.37" shape="11616.78,4946.23 11617.41,4946.74 11618.95,4947.00"/>
    </edge>
    <edge id=":Cluster_Sen_17_3_2_14" function="internal">
        <lane id=":Cluster_Sen_17_3_2_14_0" index="0" speed="7.18" length="11.12" shape="11616.53,4961.33 11616.00,4958.84 11616.66,4956.59 11618.51,4954.60 11621.56,4952.85"/>
    </edge>
    <edge id=":Cluster_Sen_17_3_2_15" function="internal">
        <lane id=":Cluster_Sen_17_3_2_15_0" index="0" speed="7.89" length="13.62" shape="11616.53,4961.33 11615.44,4957.55 11615.70,4954.39 11617.30,4951.85 11620.25,4949.93"/>
    </edge>
    <edge id=":Cluster_Sen_17_3_2_16" function="internal">
        <lane id=":Cluster_Sen_17_3_2_16_0" index="0" speed="8.58" length="16.31" shape="11616.53,4961.33 11614.88,4956.27 11614.74,4952.20 11616.09,4949.11 11618.95,4947.00"/>
    </edge>
    <edge id=":Cluster_Sen_17_3_2_17" function="internal">
        <lane id=":Cluster_Sen_17_3_2_17_0" index="0" speed="13.89" length="31.11" shape="11616.53,4961.33 11614.35,4955.44 11611.31,4946.65 11608.19,4937.90 11605.77,4932.14"/>
    </edge>
    <edge id=":Cluster_Sen_17_3_2_18" function="internal">
        <lane id=":Cluster_Sen_17_3_2_18_0" index="0" speed="11.10" length="28.74" shape="11616.53,4961.33 11611.65,4951.50 11606.97,4945.03 11602.47,4941.92 11598.16,4942.18"/>
    </edge>
    <edge id=":Cluster_Sen_17_3_2_19" function="internal">
        <lane id=":Cluster_Sen_17_3_2_19_0" index="0" speed="10.53" length="25.76" shape="11616.53,4961.33 11612.21,4952.78 11607.93,4947.23 11603.70,4944.66 11599.50,4945.08"/>
    </edge>
    <edge id=":Cluster_Sen_17_3_2_20" function="internal">
        <lane id=":Cluster_Sen_17_3_2_20_0" index="0" speed="9.93" length="22.82" shape="11616.53,4961.33 11612.77,4954.06 11608.90,4949.42 11604.92,4947.40 11600.83,4947.99"/>
    </edge>
    <edge id=":Cluster_Sen_17_3_2_21" function="internal">
        <lane id=":Cluster_Sen_17_3_2_21_0" index="0" speed="6.46" length="9.03" shape="11606.23,4959.77 11608.62,4959.06 11610.64,4959.30 11612.29,4960.48 11613.59,4962.59"/>
    </edge>
    <edge id=":Cluster_Sen_17_3_2_22" function="internal">
        <lane id=":Cluster_Sen_17_3_2_22_0" index="0" speed="13.89" length="17.36" shape="11606.23,4959.77 11621.56,4952.85"/>
        <lane id=":Cluster_Sen_17_3_2_22_1" index="1" speed="13.89" length="17.36" shape="11606.23,4959.77 11610.61,4957.22 11613.23,4954.82 11615.86,4952.44 11620.25,4949.93"/>
        <lane id=":Cluster_Sen_17_3_2_22_2" index="2" speed="13.89" length="17.36" shape="11606.23,4959.77 11610.52,4956.71 11612.58,4953.36 11614.64,4950.02 11618.95,4947.00"/>
        <lane id=":Cluster_Sen_17_3_2_22_3" index="3" speed="13.89" length="17.36" shape="11604.90,4956.86 11609.69,4955.22 11613.22,4954.83 11616.75,4954.45 11621.56,4952.85"/>
        <lane id=":Cluster_Sen_17_3_2_22_4" index="4" speed="13.89" length="17.36" shape="11604.90,4956.86 11620.25,4949.93"/>
        <lane id=":Cluster_Sen_17_3_2_22_5" index="5" speed="13.89" length="17.36" shape="11604.90,4956.86 11609.28,4954.30 11611.91,4951.91 11614.54,4949.52 11618.95,4947.00"/>
        <lane id=":Cluster_Sen_17_3_2_22_6" index="6" speed="13.89" length="17.36" shape="11603.56,4953.95 11608.68,4952.71 11612.55,4953.37 11616.43,4954.04 11621.56,4952.85"/>
        <lane id=":Cluster_Sen_17_3_2_22_7" index="7" speed="13.89" length="17.36" shape="11603.56,4953.95 11608.36,4952.31 11611.90,4951.91 11615.44,4951.53 11620.25,4949.93"/>
        <lane id=":Cluster_Sen_17_3_2_22_8" index="8" speed="13.89" length="17.36" shape="11603.56,4953.95 11618.95,4947.00"/>
    </edge>
    <edge id=":Cluster_Sen_17_3_2_31" function="internal">
        <lane id=":Cluster_Sen_17_3_2_31_0" index="0" speed="6.99" length="11.18" shape="11602.97,4933.69 11603.70,4936.10 11603.15,4938.32 11601.30,4940.34 11598.16,4942.18"/>
    </edge>
    <edge id=":Cluster_Sen_17_3_2_32" function="internal">
        <lane id=":Cluster_Sen_17_3_2_32_0" index="0" speed="7.70" length="13.82" shape="11602.97,4933.69 11604.37,4937.33 11604.26,4940.45 11602.63,4943.03 11599.50,4945.08"/>
    </edge>
    <edge id=":Cluster_Sen_17_3_2_33" function="internal">
        <lane id=":Cluster_Sen_17_3_2_33_0" index="0" speed="8.40" length="16.63" shape="11602.97,4933.69 11605.03,4938.57 11605.37,4942.58 11603.97,4945.72 11600.83,4947.99"/>
    </edge>
    <edge id=":Cluster_Sen_17_3_2_34" function="internal">
        <lane id=":Cluster_Sen_17_3_2_34_0" index="0" speed="13.89" length="30.80" shape="11602.97,4933.69 11605.37,4939.41 11608.44,4948.06 11611.44,4956.76 11613.59,4962.59"/>
    </edge>
    <edge id=":Cluster_Sen_17_3_2_35" function="internal">
        <lane id=":Cluster_Sen_17_3_2_35_0" index="0" speed="11.42" length="28.08" shape="11602.97,4933.69 11608.69,4943.15 11613.70,4949.49 11617.99,4952.73 11621.56,4952.85"/>
    </edge>
    <edge id=":Cluster_Sen_17_3_2_36" function="internal">
        <lane id=":Cluster_Sen_17_3_2_36_0" index="0" speed="10.85" length="25.22" shape="11602.97,4933.69 11608.03,4941.91 11612.59,4947.36 11616.67,4950.03 11620.25,4949.93"/>
    </edge>
    <edge id=":Cluster_Sen_17_3_2_37" function="internal">
        <lane id=":Cluster_Sen_17_3_2_37_0" index="0" speed="10.25" length="22.40" shape="11602.97,4933.69 11607.36,4940.67 11611.49,4945.22 11615.35,4947.33 11618.95,4947.00"/>
    </edge>
    <edge id=":Cluster_Sen_17_9_0" function="internal">
        <lane id=":Cluster_Sen_17_9_0_0" index="0" speed="13.89" length="8.31" shape="12134.20,4704.23 12126.90,4707.42"/>
        <lane id=":Cluster_Sen_17_9_0_1" index="1" speed="13.89" length="8.31" shape="12135.50,4707.16 12133.05,4707.69 12131.20,4707.29 12129.35,4706.89 12126.90,4707.42"/>
        <lane id=":Cluster_Sen_17_9_0_2" index="2" speed="13.89" length="8.31" shape="12135.50,4707.16 12128.19,4710.35"/>
        <lane id=":Cluster_Sen_17_9_0_3" index="3" speed="13.89" length="8.31" shape="12136.80,4710.08 12134.34,4710.62 12132.49,4710.22 12130.64,4709.82 12128.19,4710.35"/>
        <lane id=":Cluster_Sen_17_9_0_4" index="4" speed="13.89" length="8.31" shape="12136.80,4710.08 12129.47,4713.28"/>
    </edge>
    <edge id=":Cluster_Sen_17_9_5" function="internal">
        <lane id=":Cluster_Sen_17_9_5_0" index="0" speed="3.74" length="2.64" shape="12138.09,4713.01 12137.26,4714.32 12137.22,4715.27 12137.32,4715.36"/>
    </edge>
    <edge id=":Cluster_Sen_17_9_12" function="internal">
        <lane id=":Cluster_Sen_17_9_12_0" index="0" speed="3.74" length="2.38" shape="12137.32,4715.36 12137.96,4715.89 12139.48,4716.15"/>
    </edge>
    <edge id=":Cluster_Sen_17_9_6" function="internal">
        <lane id=":Cluster_Sen_17_9_6_0" index="0" speed="13.89" length="8.34" shape="12134.73,4725.26 12142.07,4722.00"/>
        <lane id=":Cluster_Sen_17_9_6_1" index="1" speed="13.89" length="8.34" shape="12133.45,4722.33 12135.91,4721.79 12137.76,4722.17 12139.62,4722.55 12142.07,4722.00"/>
        <lane id=":Cluster_Sen_17_9_6_2" index="2" speed="13.89" length="8.34" shape="12133.45,4722.33 12140.78,4719.08"/>
        <lane id=":Cluster_Sen_17_9_6_3" index="3" speed="13.89" length="8.34" shape="12132.16,4719.40 12134.62,4718.86 12136.47,4719.24 12138.32,4719.62 12140.78,4719.08"/>
        <lane id=":Cluster_Sen_17_9_6_4" index="4" speed="13.89" length="8.34" shape="12132.16,4719.40 12139.48,4716.15"/>
    </edge>
    <edge id=":Cluster_Sen_17_9_11" function="internal">
        <lane id=":Cluster_Sen_17_9_11_0" index="0" speed="3.76" length="2.70" shape="12130.87,4716.47 12131.72,4715.14 12131.77,4714.17 12131.65,4714.07"/>
    </edge>
    <edge id=":Cluster_Sen_17_9_13" function="internal">
        <lane id=":Cluster_Sen_17_9_13_0" index="0" speed="3.76" length="2.39" shape="12131.65,4714.07 12131.02,4713.55 12129.47,4713.28"/>
    </edge>
    <edge id=":Cluster_Sen_BKT_0" function="internal">
        <lane id=":Cluster_Sen_BKT_0_0" index="0" speed="11.04" length="17.46" shape="12816.29,4394.60 12815.38,4398.20 12813.21,4401.45 12809.77,4404.34 12805.07,4406.89"/>
    </edge>
    <edge id=":Cluster_Sen_BKT_1" function="internal">