<?xml version="1.0" encoding="UTF-8"?>

<!-- generated on 01/17/21 11:16:29 by Eclipse SUMO duarouter Version 1.6.0
<configuration xmlns:xsi="http://www.w3.org/2001/XMLSchema-instance" xsi:noNamespaceSchemaLocation="http://sumo.dlr.de/xsd/duarouterConfiguration.xsd">

    <input>
        <net-file value="osm.net.xml"/>
        <route-files value="osm.passenger.trips.xml"/>
    </input>

    <output>
        <output-file value="routes.rou.xml"/>
        <alternatives-output value="routes.rou.alt.xml"/>
    </output>

    <time>
        <begin value="0"/>
        <end value="3600.0"/>
    </time>

    <report>
        <no-warnings value="true"/>
        <ignore-errors value="true"/>
        <no-step-log value="true"/>
    </report>

</configuration>
-->

<routes xmlns:xsi="http://www.w3.org/2001/XMLSchema-instance" xsi:noNamespaceSchemaLocation="http://sumo.dlr.de/xsd/routes_file.xsd">
    <vType id="veh_passenger" vClass="passenger"/>
    <vehicle id="veh0" type="veh_passenger" depart="0.00" departLane="best">
        <route edges="300825126#0-AddedOffRampEdge 824116561 824116561-AddedOffRampEdge 28504758 28504780#1-AddedOnRampEdge 28504780#1 28504780#1-AddedOffRampEdge 464709118 -521480905#7 -521480905#6 -521480905#3 -521480905#2 504358028 718153398#8 -307436705#2 824456409#5 824456409#6 113135397#1 113135397#3 -113135397#4"/>
    </vehicle>
    <vehicle id="veh1" type="veh_passenger" depart="1.60" departLane="best">
        <route edges="-61232401#6 61232401#6 61232401#7 61232401#8 61232401#9 -521480905#3 -521480905#2 504358028 718153398#8 -307436705#2 824456409#5 824456409#6 113135397#1 113135397#3 113135397#5 113135397#7 113135397#8 113135397#10 113135397#11 113135397#13 113135397#14 113135397#16 113135397#17 113135397#18 113135397#19 44629574#0 44629574#1 44629574#2 44629574#3 -450150570"/>
    </vehicle>
    <vehicle id="veh3" type="veh_passenger" depart="4.79" departLane="best">
        <route edges="751454884#3 751454885#0 751454885#2 751454885#3 751454885#5 751454884#0 692958945#0 692958945#6 692958945#7 692958943 -156261464#13 156357489#0 156357489#1 156357489#2 -156357489#2"/>
    </vehicle>
    <vehicle id="veh4" type="veh_passenger" depart="6.38" departLane="best">
        <route edges="131467341#0 -131467341#1 131467340#3 -450150576#12 -450150576#10 -450150576#6 -450150576#0 -318745828#9 -318745828#8 -318745828#6 -318745828#4 -318745828#2 -318745828#0 -156591254#1 -156591254#0 -113135397#19 -113135397#18 -113135397#17 -113135397#16 -113135397#15 -113135397#13 -113135397#12 -113135397#10 -113135397#8"/>
    </vehicle>
    <vehicle id="veh5" type="veh_passenger" depart="7.98" departLane="best">
        <route edges="-44629574#3 -44629574#2 -44629574#1 -44629574#0 -113135397#19 -113135397#18 -113135397#17 -113135397#16 -113135397#15 -113135397#13 -113135397#12 -113135397#10 -113135397#8 -113135397#7 -113135397#6 -113135397#4 -113135397#2 -113135397#0 -824456409#5 -824456409#4 -824456409#0 156591171#0 156591171#2 750035412#1 750035412#1-AddedOffRampEdge 824816456 156261400 156357491#0 156357491#2 156357491#7 693789399#1 693789399#2 -156357444#0 156357492#0 156357492#1 156357492#2 156357492#3 156357492#5"/>
    </vehicle>
    <vehicle id="veh6" type="veh_passenger" depart="9.58" departLane="best">
        <route edges="-113135397#6 -113135397#4 -113135397#2 -113135397#0 -824456409#5 -824456409#4 -824456409#0 156591171#0 156591171#2 751454885#0 751454885#2 751454885#3 751454885#5 -450150576#12 -450150576#10 -450150576#6 -450150576#0 -442881465"/>
    </vehicle>
    <vehicle id="veh7" type="veh_passenger" depart="11.17" departLane="best" departSpeed="max">
        <route edges="312217346#0 312217346#0-AddedOffRampEdge 150557362 26575959 520440860 210884297#0 210884297#1 692958945#7 692958943 -156261464#13 -156261464#10 -156261464#8 -156261464#6 -156261464#3 -156261464#2 -156261464#1 -156515697#1 156515697#1"/>
    </vehicle>
    <vehicle id="veh8" type="veh_passenger" depart="12.77" departLane="best">
        <route edges="-44629574#5 -44629574#4 -44629574#3 -44629574#2 -44629574#1 -44629574#0 -113135397#19 -113135397#18 -113135397#17 -113135397#16 -113135397#15 -113135397#13 -113135397#12 -113135397#10 -113135397#8 -113135397#7 -113135397#6 -113135397#4 -113135397#2 -113135397#0 -824456409#5 -824456409#4 -824456409#0 156591171#0 156591171#2 750035412#1 750035412#1-AddedOffRampEdge 824816456 156261400 824816458#0 377691430#0 185007810#0 185007810#1 185007810#3 185007810#5"/>
    </vehicle>
    <vehicle id="veh9" type="veh_passenger" depart="14.36" departLane="best">
        <route edges="61232401#6 61232401#7 61232401#8 61232401#9 -521480905#3 -521480905#2 504358028 718153398#8 -307436705#2 824456409#5 824456409#6 113135397#1 113135397#3 113135397#5 113135397#7 113135397#8 113135397#10 113135397#11 113135397#13 -113135397#13"/>
    </vehicle>
    <vehicle id="veh10" type="veh_passenger" depart="15.96" departLane="best">
        <route edges="61232401#2 -61232401#2 -61232401#1 824456407#2 824456407#3 824456407#6 300825126#0 300825126#0-AddedOffRampEdge 824116561 824116561-AddedOffRampEdge 824816455 824116560#0 824116560#1 824116560#2 824116560#3 751454885#0 751454885#2 751454885#3 751454885#5 -450150576#12 -450150576#10 -450150576#6 -450150576#0 -318745828#9 318745828#9"/>
    </vehicle>
    <vehicle id="veh12" type="veh_passenger" depart="19.15" departLane="best">
        <route edges="824456405#0 482404745#0 482404745#4 300825126#0 300825126#0-AddedOffRampEdge 824116561 824116561-AddedOffRampEdge 824816455 824116560#0 824116560#1 824116560#2 824116560#3 751454885#0 751454885#2 751454885#3 751454885#5 450149632#0 450149632#2 156501171#0 156501171#1 746383266#2 746383266#3 -746383266#3"/>
    </vehicle>
    <vehicle id="veh14" type="veh_passenger" depart="22.34" departLane="best">
        <route edges="61232401#4 61232401#5 61232401#6 61232401#7 61232401#8 61232401#9 -521480905#3 -521480905#2 504358028 718153398#8 -307436705#2 -824456409#4 -824456409#0 -442887015#2 -442887015#0 442887017#2"/>
    </vehicle>
    <vehicle id="veh15" type="veh_passenger" depart="23.94" departLane="best">
        <route edges="156496227 -156496227 -113135397#21 -113135397#20 -113135397#19 -113135397#18 -113135397#17 -113135397#16 -113135397#15 -113135397#13 -113135397#12 -113135397#10 -113135397#8 -113135397#7 -113135397#6 -113135397#4 -113135397#2 -113135397#0 -824456409#5 -824456409#4 -824456409#0 156591171#0 156591171#2 750035412#1 750035412#1-AddedOffRampEdge 824816456 156261400 824816458#0 824456408#0"/>
    </vehicle>
    <vehicle id="veh16" type="veh_passenger" depart="25.54" departLane="best">
        <route edges="113135397#25 -113135397#26 -113135397#24 -113135397#21 -113135397#20 -113135397#19 -113135397#18 -113135397#17 -113135397#16 -113135397#15 -113135397#13 -113135397#12 -113135397#10 -113135397#8 -113135397#7 -113135397#6 -113135397#4 -113135397#2 -113135397#0 -824456409#5 -824456409#4 -824456409#0 156591171#0 156591171#2 751454885#0 751454885#2 751454885#3 93727607#0 93727607#2 93727607#4 318750018#1 156515738#2 156515738#3"/>
    </vehicle>
    <vehicle id="veh18" type="veh_passenger" depart="28.73" departLane="best">
        <route edges="710398211 -710398211 -44629574#4 -44629574#3 -44629574#2 -44629574#1 -44629574#0 -113135397#19 -113135397#18 -113135397#17 -113135397#16 -113135397#15 -113135397#13 -113135397#12 -113135397#10 -113135397#8 -113135397#7 -113135397#6 -113135397#4 -113135397#2 -113135397#0 -824456409#5 -824456409#4 -824456409#0 156591171#0 156591171#2 750035412#1 750035412#1-AddedOffRampEdge 824816456 156261400 824816458#0 377691430#0 185007810#0 185007810#1 185007810#3"/>
    </vehicle>
    <vehicle id="veh19" type="veh_passenger" depart="30.32" departLane="best" departSpeed="max">
        <route edges="336620983#0 336620983#3 336620983#5 336620983#7 482404745#0 482404745#4 300825126#0 300825126#0-AddedOffRampEdge 824116561 824116561-AddedOffRampEdge 824816455 824116560#0 824116560#1 824116560#2 824116560#3 751454885#0 751454885#2 751454885#3 751454885#5 751454884#0 692958945#0 692958945#6 692958945#7 692958943 -156261464#13 -156261464#10 -156261464#8 -156261464#6 -156261464#3 -156261464#2"/>
    </vehicle>
    <vehicle id="veh20" type="veh_passenger" depart="31.92" departLane="best">
        <route edges="-450150575#1 450150575#1 450150575#2 450150576#11 751454884#0 751454884#1 751454884#2 751454884#3 750035412#1 750035412#1-AddedOffRampEdge 113135465#0 622812953#0 622812955#1 692958947 -692958946#0 -622812957"/>
    </vehicle>
    <vehicle id="veh21" type="veh_passenger" depart="33.52" departLane="best">
        <route edges="-156357473#0 -693789442#0 -156357484#1 156261464#2 156261464#3 156261464#5 156261464#8 156261464#10 156261464#12 824116539#0 824116540#1 824116538#1 824116538#2 824116538#3 -622812930#12 -622812930#1 -463223680#1 -463223680#0"/>
    </vehicle>
    <vehicle id="veh22" type="veh_passenger" depart="35.11" departLane="best">
        <route edges="-156357493#7 156357493#5 153225684#4 153225684#6 153225686#3 824456406 820349335#0 824456405#0 482404745#0 482404745#4 300825126#0 300825126#0-AddedOffRampEdge 824116561 824116561-AddedOffRampEdge 824816455 824116560#0 824116560#1 824116560#2 824116560#3 751454885#0 751454885#2 751454885#3 751454885#5 -450150576#12 -450150576#10 -450150576#6 -450150576#0 -318745828#9 -318745828#8 -318745828#6 -318745828#4 -318745828#2 -318745828#0 -156591254#1 -156591254#0 113135397#20 113135397#21 113135397#22 156496189#0 156496189#1 156496189#2 156496189#3 156496189#4 620064344 -620064344"/>
    </vehicle>
    <vehicle id="veh23" type="veh_passenger" depart="36.71" departLane="best">
        <route edges="300825126#0 300825126#0-AddedOffRampEdge 824116561 824116561-AddedOffRampEdge 824816455 824116560#0 824116560#1 824116560#2 824116560#3 751454885#0 751454885#2 751454885#3 751454885#5 -450150576#12 -450150576#10 -450150576#6 -450150576#0 -318745828#9 -318745828#8 -318745828#6 -318745828#4 -318745828#2 -318745828#0 -156591254#1 -156591254#0 -113135397#19 -113135397#18 113135397#18"/>
    </vehicle>
    <vehicle id="veh24" type="veh_passenger" depart="38.30" departLane="best">
        <route edges="113135397#19 156591254#0 156591254#1 318745828#0 318745828#1 318745828#3 318745828#5 318745828#7 318745828#9 318745828#10 450150576#1 450150576#7 -450150575#2 -450150575#1 -450150575#0 44572159#0 44572159#1 44572159#2 -44572159#2"/>
    </vehicle>
    <vehicle id="veh25" type="veh_passenger" depart="39.90" departLane="best">
        <route edges="-61232377#1 -61232401#3 -61232401#2 -61232401#1 824456407#2 824456407#3 824456407#6 300825126#0 300825126#0-AddedOffRampEdge 824116561 824116561-AddedOffRampEdge 824816455 824116560#0"/>
    </vehicle>
    <vehicle id="veh27" type="veh_passenger" depart="43.09" departLane="best">
        <route edges="-318706323 61232401#5 61232401#6 61232401#7 61232401#8 61232401#9 -521480905#3 -521480905#2 504358028 718153398#8 -307436705#2 -824456409#4 -824456409#0 156591171#0 -442887017#5 -442887017#3 -442887017#1 442887017#0"/>
    </vehicle>
    <vehicle id="veh28" type="veh_passenger" depart="44.69" departLane="best">
        <route edges="-307436705#2 824456409#5 824456409#6 113135397#1 113135397#3 113135397#5 113135397#7 113135397#8"/>
    </vehicle>
    <vehicle id="veh29" type="veh_passenger" depart="46.28" departLane="best">
        <route edges="824816456 156261400 824816458#0 300825126#0 300825126#0-AddedOffRampEdge 824116561 824116561-AddedOffRampEdge 824816455 824116560#0 824116560#1 824116560#2 824116560#3 751454885#0 751454885#2 751454885#3 751454885#5 751454884#0 692958945#0 692958945#6 26575926#0 26575926#1"/>
    </vehicle>
    <vehicle id="veh30" type="veh_passenger" depart="47.88" departLane="best">
        <route edges="156515752#0 -156515738#4 -442905888#0 -93727607#4 -93727607#3 -93727607#1 751454885#5 751454884#0 751454884#1 751454884#2 751454884#3 750035412#1 750035412#1-AddedOffRampEdge 824816456 156261400 824816458#0 824456408#0 824456408#2 824456408#4 824456407#0 61232401#0 61232401#2 61232401#3 -61232377#0 -318706321#2 -318706321#1 318706321#0"/>
    </vehicle>
    <vehicle id="veh31" type="veh_passenger" depart="49.48" departLane="best">
        <route edges="692958947 -692958946#0 -622812957 -622812955#0 113135465#2 113135465#5 824116560#0 824116560#1 824116560#2 824116560#3 750035412#1 750035412#1-AddedOffRampEdge 824816456 156261400 824816458#0 300825126#0 300825126#0-AddedOffRampEdge 824116561 824116561-AddedOffRampEdge 28504758 28504780#1-AddedOnRampEdge 28504780#1 28504780#1-AddedOffRampEdge 464709118"/>
    </vehicle>
    <vehicle id="veh32" type="veh_passenger" depart="51.07" departLane="best">
        <route edges="-450150575#2 450150575#2 -450150576#10 -450150576#6 -450150576#0 -318745828#9 -318745828#8 -318745828#6 -318745828#4 -318745828#2 -318745828#0 -620064364 113135405#1 -113135405#3"/>
    </vehicle>
    <vehicle id="veh33" type="veh_passenger" depart="52.67" departLane="best">
        <route edges="-693789444 693789444 -156357473#2 -156357473#1 -156357473#0 -693789442#0 -156357484#1 156261464#2 156261464#3 156261464#5 156261464#8 156261464#10 156261464#12 824116539#0 824116540#1 824116538#1 824116538#2 824116538#3 824116538#4 751454884#2 751454884#3 750035412#1 750035412#1-AddedOffRampEdge 824816456 156261400 824816458#0 824456408#0 824456408#2 824456408#4 824456407#0 61232401#0 -61232401#1"/>
    </vehicle>
    <vehicle id="veh34" type="veh_passenger" depart="54.26" departLane="best">
        <route edges="-44572159#0 156591307#1 450150575#1 450150575#2 450150576#11 751454884#0 751454884#1 751454884#2 751454884#3 750035412#1 750035412#1-AddedOffRampEdge 113135465#0 113135465#2 113135465#5 824116560#0 824116560#1 824116560#2"/>
    </vehicle>
    <vehicle id="veh35" type="veh_passenger" depart="55.86" departLane="best">
        <route edges="718889435 -718889435 -693789442#0 -156357484#1 156261464#2 156261464#3 156261464#5 156261464#8 156261464#10 156261464#12 824116539#0 824116540#1 824116538#1 824116538#2 824116538#3 -131467341#1 131467340#3 -450150576#12 -450150576#10 -450150576#6 -450150576#0 -318745828#9 -318745828#8 -318745828#6 -318745828#4 -318745828#2 -530571735#1 -693793229#0"/>
    </vehicle>
    <vehicle id="veh36" type="veh_passenger" depart="57.46" departLane="best" departSpeed="max">
        <route edges="312217346#0 312217346#0-AddedOffRampEdge 312217346#1 312217346#1-AddedOffRampEdge 113139310"/>
    </vehicle>
    <vehicle id="veh37" type="veh_passenger" depart="59.05" departLane="best" departSpeed="max">
        <route edges="751455690#0 751454884#0 751454884#1 751454884#2 751454884#3 750035412#1 750035412#1-AddedOffRampEdge 824816456 156261400 824816458#0 824456408#0 824456408#2 824456408#4 156341172#0"/>
    </vehicle>
    <vehicle id="veh38" type="veh_passenger" depart="60.65" departLane="best">
        <route edges="-61232354#1 -61232354#0 61232401#9 -521480905#3 -521480905#2 504358028 -718153398#7 -507001401#1"/>
    </vehicle>
    <vehicle id="veh39" type="veh_passenger" depart="62.24" departLane="best">
        <route edges="156591171#2 750035412#1 750035412#1-AddedOffRampEdge 824816456 156261400 824816458#0 824456408#0 824456408#2 824456408#4 -318343135#2 -318706317#2 -801892654 -61232374#0"/>
    </vehicle>
    <vehicle id="veh42" type="veh_passenger" depart="67.03" departLane="best">
        <route edges="93727607#2 -93727607#3 -93727607#1 751454885#5 751454884#0 751454884#1 751454884#2 751454884#3 750035412#1 750035412#1-AddedOffRampEdge 824816456 156261400 824816458#0 377691430#0 153225684#0 153225684#2 153225684#4 156357497#0"/>
    </vehicle>
    <vehicle id="veh43" type="veh_passenger" depart="68.63" departLane="best">
        <route edges="-156357489#6 -156357489#4 -156357489#3 -156357489#2 -156357489#1 -156357489#0 -156261464#10 -156261464#8 -156261464#6 -156261464#3"/>
    </vehicle>
    <vehicle id="veh45" type="veh_passenger" depart="71.82" departLane="best">
        <route edges="530571735#0 -693793229#0 -156591254#0 -113135397#19 -113135397#18 -113135397#17 -113135397#16 -113135397#15 -113135397#13 -113135397#12 -113135397#10 -113135397#8 -113135397#7 -113135397#6 -113135397#4 -113135397#2 -113135397#0 -824456409#5 -824456409#4 -824456409#0 156591171#0 156591171#2 750035412#1 750035412#1-AddedOffRampEdge 824816456 156261400 824816458#0 377691430#0 153225684#0"/>
    </vehicle>
    <vehicle id="veh48" type="veh_passenger" depart="76.61" departLane="best">
        <route edges="824456407#6 824456408#0 824456408#2 824456408#4 824456407#0 61232401#0 61232401#2 61232401#3 61232401#4 61232401#5 61232401#6 693789434"/>
    </vehicle>
    <vehicle id="veh49" type="veh_passenger" depart="78.20" departLane="best">
        <route edges="-113135397#17 -113135397#16 -113135397#15 -113135397#13 -113135397#12 -113135397#10 -113135397#8 -113135397#7 -113135397#6 -113135397#4 -113135397#2 -113135397#0 -824456409#5 -824456409#4 -824456409#0 156591171#0 156591171#2 750035412#1 750035412#1-AddedOffRampEdge 824816456 156261400 824816458#0 377691430#0"/>
    </vehicle>
    <vehicle id="veh50" type="veh_passenger" depart="79.80" departLane="best">
        <route edges="318745828#3 318745828#5 318745828#7 318745828#9 318745828#10 450150576#1 450150576#7 450150576#11 450149632#0 450149632#2 156501171#0 156501171#1"/>
    </vehicle>
    <vehicle id="veh51" type="veh_passenger" depart="81.39" departLane="best">
        <route edges="-61232377#0 61232377#0 -61232401#3 -61232401#2 -61232401#1 824456407#2 824456407#3 824456407#6 300825126#0 300825126#0-AddedOffRampEdge 824116561 824116561-AddedOffRampEdge 824816455 824116560#0 824116560#1 824116560#2 824116560#3 751454885#0 751454885#2 751454885#3 751454885#5 751454884#0 692958945#0 692958945#6 26575926#0 26575926#1 26575926#2"/>
    </vehicle>
    <vehicle id="veh52" type="veh_passenger" depart="82.99" departLane="best">
        <route edges="-156496189#2 -156496189#1 -156496189#0 -113135397#24 -113135397#21 -113135397#20 -113135397#19 -113135397#18 -113135397#17 -113135397#16 -113135397#15 -113135397#13 -113135397#12 -113135397#10 -113135397#8 -113135397#7 -113135397#6 -113135397#4 -113135397#2 -113135397#0 -824456409#5 -824456409#4 -824456409#0 156591171#0 156591171#2 750035412#1 750035412#1-AddedOffRampEdge 824816456 156261400 824816458#0 377691430#0 153225684#0 153225684#2 153225684#4 153225684#6 153225684#7"/>
    </vehicle>
    <vehicle id="veh53" type="veh_passenger" depart="84.59" departLane="best">
        <route edges="156261464#10 156261464#12 824116539#0 824116540#1 824116538#1 824116538#2 824116538#3 824116538#4 751454884#2 751454884#3 750035412#1 750035412#1-AddedOffRampEdge 824816456 156261400 824816458#0 300825126#0 300825126#0-AddedOffRampEdge 824116561 824116561-AddedOffRampEdge"/>
    </vehicle>
    <vehicle id="veh54" type="veh_passenger" depart="86.18" departLane="best">
        <route edges="718889435 -718889435 -693789442#0 -156357484#1 156261464#2 156261464#3 156261464#5 156261464#8 156261464#10 156261464#12 824116539#0 824116540#1 824116538#1 824116538#2 824116538#3 824116538#4 751454884#2 751454884#3 750035412#1 750035412#1-AddedOffRampEdge 824816456 156261400 824816458#0 824456408#0 824456408#2 824456408#4 824456407#0 61232401#0 61232401#2 61232401#3 -61232377#0"/>
    </vehicle>
    <vehicle id="veh55" type="veh_passenger" depart="87.78" departLane="best">
        <route edges="156357489#6 -156357489#6 -156357489#4 -156357489#3 -156357489#2 -156357489#1 -156357489#0 156261464#12 824116539#0 824116540#1 824116538#1 824116538#2 824116538#3 -131467341#1 131467340#3 -450150576#12 -450150576#10 -450150576#6 -450150576#0 -318745828#9 -318745828#8 -318745828#6"/>
    </vehicle>
    <vehicle id="veh56" type="veh_passenger" depart="89.37" departLane="best" departSpeed="max">
        <route edges="751455690#0 751454884#0 751454884#1 751454884#2 751454884#3 750035412#1 750035412#1-AddedOffRampEdge 824816456 156261400 824816458#0 824456408#0 824456408#2 824456408#4 -318343135#2 -318706317#2 -801892654 438807578#0 710018510"/>
    </vehicle>
    <vehicle id="veh57" type="veh_passenger" depart="90.97" departLane="best">
        <route edges="-63093786#3 -63093786#2 -63093786#1 336620983#7 482404745#0 482404745#4 300825126#0 300825126#0-AddedOffRampEdge 824116561 824116561-AddedOffRampEdge 824816455 824116560#0 824116560#1 824116560#2 824116560#3 751454885#0 751454885#2 751454885#3 751454885#5 751454884#0 692958945#0 692958945#6 26575926#0"/>
    </vehicle>
    <vehicle id="veh59" type="veh_passenger" depart="94.16" departLane="best">
        <route edges="464709118 -521480905#7 -521480905#6 -710018550 -61232401#8 -61232401#7 -61232401#6 -61232401#5 -61232401#4 -61232401#3 -61232401#2 -61232401#1 824456407#2 824456407#3 824456407#6 300825126#0 300825126#0-AddedOffRampEdge 824116561 824116561-AddedOffRampEdge 824816455 824116560#0 824116560#1 824116560#2 824116560#3 751454885#0 751454885#2 751454885#3 751454885#5 751454884#0 692958945#0 692958945#6 692958945#7 692958943 -156261464#13 -156261464#10 -156261464#8 -156261464#6 156515642"/>
    </vehicle>
    <vehicle id="veh60" type="veh_passenger" depart="95.76" departLane="best">
        <route edges="504358027 -504358027 521480905#3 -710018550 -61232401#8 -61232401#7 -61232401#6 -61232401#5 -61232401#4 -61232401#3 -61232401#2 -61232401#1 824456407#2 824456407#3 824456407#6 300825126#0 300825126#0-AddedOffRampEdge 824116561 824116561-AddedOffRampEdge 824816455 824116560#0 824116560#1 824116560#2 824116560#3 751454885#0 751454885#2 751454885#3 751454885#5 450149632#0 450149632#2 156501171#0 156501171#1 746383266#2 746383266#3 156496220"/>
    </vehicle>
    <vehicle id="veh61" type="veh_passenger" depart="97.35" departLane="best">
        <route edges="-113135397#0 -824456409#5 -824456409#4 -824456409#0 156591171#0 156591171#2 750035412#1 750035412#1-AddedOffRampEdge 824816456 156261400 156357491#0 156357491#2 156357491#7 -710591502#0"/>
    </vehicle>
    <vehicle id="veh62" type="veh_passenger" depart="98.95" departLane="best">
        <route edges="-113135397#21 -113135397#20 156591254#0 156591254#1 318745828#0 318745828#1 318745828#3 318745828#5 318745828#7 318745828#9 318745828#10 450150576#1 450150576#7 450150576#11 751454884#0 692958945#0 692958945#6 26575926#0 824116538#1 824116538#2 824116538#3"/>
    </vehicle>
    <vehicle id="veh63" type="veh_passenger" depart="100.55" departLane="best">
        <route edges="750035412#1 750035412#1-AddedOffRampEdge 113135465#0 113135465#2 113135465#5 824116560#0 824116560#1 824116560#2 824116560#3 751454885#0 751454885#2 751454885#3 751454885#5 -450150576#12 -450150576#10 -450150576#6 -450150576#0 -318745828#9 -318745828#8 -318745828#6 -318745828#4 -318745828#2 -318745828#0 -156591254#1 -156591254#0 113135397#20 113135397#21 113135397#22 156496189#0 156496189#1 156496189#2 156496189#3 156496189#4 156496189#5 156496189#6 156496189#7 156496189#8 620064348"/>
    </vehicle>
    <vehicle id="veh65" type="veh_passenger" depart="103.74" departLane="best">
        <route edges="-156357484#1 156261464#2 156261464#3 156261464#5 156261464#8 156261464#10 156261464#12 824116539#0 824116540#1 824116538#1 824116538#2 824116538#3 824116538#4 751454884#2 751454884#3 750035412#1 750035412#1-AddedOffRampEdge 824816456 156261400 156357491#0 156357491#2 156357491#7 693789399#1 693789399#2 -156357444#0 156357492#0 156357492#1 156357472#0 156357472#1"/>
    </vehicle>
    <vehicle id="veh66" type="veh_passenger" depart="105.33" departLane="best">
        <route edges="-156357444#0 156357444#0 -693789399#2 -693789399#1 -693789399#0 -156357491#6 -156357491#1 824816458#0 300825126#0 300825126#0-AddedOffRampEdge 824116561 824116561-AddedOffRampEdge 824816455 824116560#0 824116560#1 824116560#2 824116560#3 751454885#0 751454885#2 751454885#3 751454885#5 450149632#0 450149632#2 450149632#3"/>
    </vehicle>
    <vehicle id="veh67" type="veh_passenger" depart="106.93" departLane="best">
        <route edges="482404745#0 482404745#4 300825126#0 300825126#0-AddedOffRampEdge 824116561 824116561-AddedOffRampEdge 824816455 824116560#0 824116560#1 824116560#2 824116560#3 751454885#0 751454885#2 751454885#3 751454885#5 751454884#0 692958945#0 692958945#6 692958945#7 692958943 -156261464#13 -156261464#10 -156261464#8 -156261464#6 -156261464#3 -156261508 -156515639"/>
    </vehicle>
    <vehicle id="veh68" type="veh_passenger" depart="108.53" departLane="best">
        <route edges="156357437#1 418041715 686599196 156261464#8 156261464#10 156261464#12 824116539#0 824116540#1 824116538#1 824116538#2 824116538#3 824116538#4 751454884#2 751454884#3 751454885#0 751454885#2 751454885#3 93727607#0 93727607#2 93727607#4 318750018#1 -156515738#0 156515738#0"/>
    </vehicle>
    <vehicle id="veh69" type="veh_passenger" depart="110.12" departLane="best">
        <route edges="-61232354#1 -61232354#0 61232401#9 -521480905#3 -521480905#2 504358028 718153398#8 -307436705#2 824456409#5 824456409#6 113135397#1 113135397#3 113135397#5 113135397#7 113135397#8 113135397#10 113135397#11 113135397#13 113135397#14 113135397#16 113135397#17 113135397#18 113135397#19 44629574#0 44629574#1 44629574#2 44629574#3 44629574#4 44629574#5 44629574#6 -450150577 710398210"/>
    </vehicle>
    <vehicle id="veh70" type="veh_passenger" depart="111.72" departLane="best">
        <route edges="150557362 26575959 520440860 113135404 824116538#3 -131467341#1 131467340#3 -450150576#12 -450150576#10 -450150576#6 -450150576#0 -318745828#9 -318745828#8 -318745828#6 -318745828#4 -318745828#2 -318745828#0 -156591254#1 -156591254#0 -113135397#19 -113135397#18 -113135397#17 -113135397#16 -113135397#15 -113135397#13 -113135397#12 -113135397#10 -44573432"/>
    </vehicle>
    <vehicle id="veh72" type="veh_passenger" depart="114.91" departLane="best">
        <route edges="-442881465 -442881464 318745828#10 450150576#1 450150576#7 450150576#11 751454884#0 692958945#0 692958945#6 692958945#7 692958943 -156261464#13 -156261464#10 -156261464#8 -156261464#6 -156261464#3 -156261464#2 156357484#0 156357484#2 156357473#0 156357473#1 156357473#2 -693789444"/>
    </vehicle>
    <vehicle id="veh73" type="veh_passenger" depart="116.51" departLane="best">
        <route edges="93727605#0 -93727605#1 -824456409#0 156591171#0 156591171#2 750035412#1 750035412#1-AddedOffRampEdge 824816456 156261400 824816458#0 300825126#0 300825126#0-AddedOffRampEdge 824116561 824116561-AddedOffRampEdge 28504758"/>
    </vehicle>
    <vehicle id="veh74" type="veh_passenger" depart="118.10" departLane="best" departSpeed="max">
        <route edges="153225686#0 153225686#3 824456406 820349335#0 824456405#0 482404745#0 482404745#4 300825126#0 300825126#0-AddedOffRampEdge 824116561 824116561-AddedOffRampEdge 824816455 824116560#0 824116560#1 824116560#2 824116560#3 751454885#0 751454885#2 751454885#3 751454885#5 -450150576#12 -450150576#10 -450150576#6 -450150576#0 -318745828#9 -318745828#8 -318745828#6 -318745828#4 -318745828#2 -318745828#0 -156591254#1 -156591254#0 113135397#20 113135397#21 113135397#22 156496189#0 156496189#1"/>
    </vehicle>
    <vehicle id="veh76" type="veh_passenger" depart="121.29" departLane="best">
        <route edges="-718889435 -693789442#0 -156357484#1 156261464#2 156261464#3 156261464#5 156261464#8 156261464#10 156261464#12 824116539#0 824116540#1 824116538#1 824116538#2 824116538#3 824116538#4 751454884#2 751454884#3 750035412#1 750035412#1-AddedOffRampEdge 824816456 156261400 824816458#0 377691430#0 185007810#0 185007810#1 185007810#3 185007810#5"/>
    </vehicle>
    <vehicle id="veh77" type="veh_passenger" depart="122.89" departLane="best">
        <route edges="-450150576#10 450150576#7 450150576#11 751454884#0 692958945#0 692958945#6 692958945#7 692958943 -156261464#13 -156261464#10 -156261464#8 -156261464#6 -156261464#3 -156261464#2 -156261464#1 -156261464#0 -44695699#0"/>
    </vehicle>
    <vehicle id="veh79" type="veh_passenger" depart="126.08" departLane="best">
        <route edges="-450150575#2 450150575#2 450150576#11 751454884#0 751454884#1 751454884#2 751454884#3"/>
    </vehicle>
    <vehicle id="veh80" type="veh_passenger" depart="127.68" departLane="best">
        <route edges="710398209 -710398209 -44629574#7 -44629574#6 -44629574#5 -44629574#4 -44629574#3 -44629574#2 -44629574#1 -44629574#0 -113135397#19 -113135397#18 -113135397#17 -113135397#16 -113135397#15 -113135397#13 -113135397#12 -113135397#10 -113135397#8 -113135397#7 -113135397#6 -113135397#4 -113135397#2 -113135397#0 -824456409#5 -824456409#4 -824456409#0 156591171#0 156591171#2 750035412#1 750035412#1-AddedOffRampEdge 824816456 156261400 156357491#0 156357491#2 156357491#7 693789399#1 693789399#2 -156357444#0 156357492#0 156357492#1 156357492#2 156357492#3 -156357446#1"/>
    </vehicle>
    <vehicle id="veh82" type="veh_passenger" depart="130.87" departLane="best">
        <route edges="-44573432 -113135397#10 -113135397#8 -113135397#7 -113135397#6 -113135397#4 -113135397#2 -113135397#0 -824456409#5 -824456409#4 -824456409#0 156591171#0 156591171#2 751454885#0 751454885#2 751454885#3 751454885#5 751454884#0 692958945#0 692958945#6 692958945#7 692958943 -156261464#13 -156261464#10 -156261464#8 -156261464#6 -156261464#3 -156261464#2 156357484#0 156515672 -156515672"/>
    </vehicle>
    <vehicle id="veh83" type="veh_passenger" depart="132.47" departLane="best">
        <route edges="824116560#0 824116560#1 824116560#2 824116560#3 750035412#1 750035412#1-AddedOffRampEdge 824816456 156261400 824816458#0 377691430#0 185007810#0"/>
    </vehicle>
    <vehicle id="veh84" type="veh_passenger" depart="134.06" departLane="best">