<?xml version="1.0" encoding="UTF-8"?>
<!-- generated on 2021-01-17 11:20:18.747946 by routeSampler.py v1_6_0+0003-190709904e
  options: -r routes_new_output.rou.xml <doubleminus>turn-files onnut_turn.xml -o routes_filter.rou.xml
-->
<routes xmlns:xsi="http://www.w3.org/2001/XMLSchema-instance" xsi:noNamespaceSchemaLocation="http://sumo.dlr.de/xsd/routes_file.xsd">
<!-- begin="54000.0" end="57600.0" -->
    <vehicle id="54000_0" depart="54000.00">
        <route edges="-693789436 693789436 318706320 -521480905#6 -710018550 -61232401#8 -61232401#7 -61232401#6 -61232401#5 -61232401#4 -61232401#3 -61232401#2 -61232401#1 824456407#2 824456407#3 824456407#6 300825126#0 300825126#0-AddedOffRampEdge 824116561 824116561-AddedOffRampEdge 824816455 824116560#0 824116560#1 824116560#2 824116560#3 751454885#0 751454885#2 93727604#0 -710591499"/>
    </vehicle>
    <vehicle id="54000_1" depart="54001.98">
        <route edges="824816458#0 300825126#0 300825126#0-AddedOffRampEdge 824116561 824116561-AddedOffRampEdge 824816455 824116560#0 824116560#1 824116560#2 824116560#3 751454885#0 751454885#2 751454885#3"/>
    </vehicle>
    <vehicle id="54000_2" depart="54003.96">
        <route edges="-61232401#8 -61232401#7 -61232401#6 -61232401#5 -61232401#4 -61232401#3 -61232401#2 -61232401#1 824456407#2 824456407#3 824456407#6 300825126#0 300825126#0-AddedOffRampEdge 824116561 824116561-AddedOffRampEdge 824816455 824116560#0 824116560#1 824116560#2 824116560#3 751454885#0 751454885#2 751454885#3 751454885#5 751454884#0 692958945#0 692958945#6 692958945#7 692958943 -156261464#13 -156261464#10 -156261464#8 -156261464#6 -156261464#3 -156261464#2 156357484#0 -156357484#1"/>
    </vehicle>
    <vehicle id="54000_3" depart="54005.94">
        <route edges="-113135397#19 -113135397#18 -113135397#17 -113135397#16 -113135397#15 -113135397#13 -113135397#12 -113135397#10 -113135397#8 -113135397#7 -113135397#6 -113135397#4 -113135397#2 -113135397#0 -824456409#5 -824456409#4 -824456409#0 156591171#0 156591171#2 751454885#0 751454885#2 751454885#3 751454885#5 450149632#0 450149632#2 156501171#0"/>
    </vehicle>
    <vehicle id="54000_4" depart="54007.92">
        <route edges="28504780#1-AddedOffRampEdge 464709118 -521480905#7 -521480905#6 -710018550 -61232401#8 -61232401#7 -61232401#6 -61232401#5 -61232401#4 -61232401#3 -61232401#2 -61232401#1 824456407#2 824456407#3 824456407#6 300825126#0 300825126#0-AddedOffRampEdge 824116561 824116561-AddedOffRampEdge 824816455 824116560#0 824116560#1 824116560#2 824116560#3 751454885#0 751454885#2 751454885#3 751454885#5 751454884#0 751454884#1 751454884#2 751454884#3"/>
    </vehicle>
    <vehicle id="54000_5" depart="54009.90">
        <route edges="156591171#0 156591171#2 751454885#0 751454885#2 751454885#3 751454885#5 751454884#0 692958945#0 692958945#6 692958945#7 692958943 -156261464#13 -156261464#10 -156261464#8 -156261464#6 -156261464#3 -156261464#2 156357484#0 156357484#2 156357473#0 156357473#1 156357473#2"/>
    </vehicle>
    <vehicle id="54000_6" depart="54011.88">
        <route edges="-484458032 -484458029#1 -484458029#0 -156357415#3 820349335#0 824456405#0 482404745#0 482404745#4 300825126#0 300825126#0-AddedOffRampEdge 824116561 824116561-AddedOffRampEdge 824816455 824116560#0 824116560#1 824116560#2 824116560#3 751454885#0 751454885#2 751454885#3 93727607#0 93727607#2 93727607#4 -318750018#0 156515738#4 156515752#1 -156515752#1"/>
    </vehicle>
    <vehicle id="54000_7" depart="54013.86">
        <route edges="484458029#0 -484458029#0 -156357415#3 820349335#0 824456405#0 482404745#0 482404745#4 300825126#0 300825126#0-AddedOffRampEdge 824116561 824116561-AddedOffRampEdge 824816455 824116560#0 824116560#1 824116560#2 824116560#3 751454885#0 751454885#2 751454885#3 751454885#5 450149632#0 450149632#2 450149632#3"/>
    </vehicle>
    <vehicle id="54000_8" depart="54015.84">
        <route edges="528448402#0 824116560#2 824116560#3 751454885#0 751454885#2 751454885#3 751454885#5 -450150576#12 -450150575#2"/>
    </vehicle>
    <vehicle id="54000_9" depart="54017.82">
        <route edges="61232401#3 -61232401#3 -61232401#2 -61232401#1 824456407#2 824456407#3 824456407#6 300825126#0 300825126#0-AddedOffRampEdge 824116561 824116561-AddedOffRampEdge 824816455 824116560#0 824116560#1 824116560#2 824116560#3 751454885#0 751454885#2 751454885#3 751454885#5 450149632#0"/>
    </vehicle>
    <vehicle id="54000_10" depart="54019.80">
        <route edges="156515654 -156515654 156515728#2 156515728#3 -156357489#4 -692958946#1 -692958946#0 -622812957 -622812955#0 113135465#2 113135465#5 824116560#0 824116560#1 824116560#2 824116560#3 751454885#0 751454885#2 751454885#3 93727607#0 93727607#2 93727607#4 318750018#1 -156515738#0 -113135484#1 523236379 -523236379"/>
    </vehicle>
    <vehicle id="54000_11" depart="54021.78">
        <route edges="156591249#0 156591249#1 824456407#0 824456407#2 824456407#3 824456407#6 300825126#0 300825126#0-AddedOffRampEdge 824116561 824116561-AddedOffRampEdge 824816455 824116560#0 824116560#1 824116560#2 824116560#3 751454885#0 751454885#2 751454885#3 751454885#5 -450150576#12 -450150576#10 -450150576#6 -450150576#0 -318745828#9 -318745828#8 -318745828#6 -318745828#4 -318745828#2 -318745828#0 -156591254#1 -156591254#0 44629574#0 44629574#1 44629574#2 44629574#3 44629574#4 44629574#5 -44629574#5"/>
    </vehicle>
    <vehicle id="54000_12" depart="54023.76">
        <route edges="710591503#0 -693789399#1 -693789399#0 -156357491#6 -156357491#1 824816458#0 300825126#0 300825126#0-AddedOffRampEdge 824116561 824116561-AddedOffRampEdge 824816455 824116560#0 824116560#1 824116560#2 824116560#3 751454885#0 751454885#2 751454885#3 751454885#5 450149632#0 450149632#2 156501171#0 -156501171#0"/>
    </vehicle>
    <vehicle id="54000_13" depart="54025.74">
        <route edges="528448402#0 824116560#2 824116560#3 751454885#0 751454885#2 751454885#3 751454885#5 -450150576#12 -450150575#2"/>
    </vehicle>
    <vehicle id="54000_14" depart="54027.72">
        <route edges="336620983#0 336620983#3 336620983#5 336620983#7 482404745#0 482404745#4 300825126#0 300825126#0-AddedOffRampEdge 824116561 824116561-AddedOffRampEdge 824816455 824116560#0 824116560#1 824116560#2 824116560#3 751454885#0 751454885#2 751454885#3 751454885#5 -450150576#12 -450150576#10 -450150576#6 -450150576#0 -318745828#9 -318745828#8 -318745828#6 -318745828#4 -318745828#2 -530571735#1 -530571735#0"/>
    </vehicle>
    <vehicle id="54000_15" depart="54029.70">
        <route edges="113135397#16 -113135397#16 -113135397#15 -113135397#13 -113135397#12 -113135397#10 -113135397#8 -113135397#7 -113135397#6 -113135397#4 -113135397#2 -113135397#0 -824456409#5 -824456409#4 -824456409#0 156591171#0 156591171#2 751454885#0 489993172#0"/>
    </vehicle>
    <vehicle id="54000_16" depart="54031.68">
        <route edges="750035412#1-AddedOffRampEdge 113135465#0 113135465#2 113135465#5 824116560#0 824116560#1 824116560#2 824116560#3 751454885#0 751454885#2 751454885#3 751454885#5 751454884#0 692958945#0 692958945#6 692958945#7 692958943 -156261464#13 -156261464#10 -156261464#8 -156261464#6 -156261464#3 -156261464#2 156357484#0"/>
    </vehicle>
    <vehicle id="54000_17" depart="54033.66">
        <route edges="484458029#2 -484458032 -484458029#1 -484458029#0 -156357415#3 820349335#0 824456405#0 482404745#0 482404745#4 300825126#0 300825126#0-AddedOffRampEdge 824116561 824116561-AddedOffRampEdge 824816455 824116560#0 824116560#1 824116560#2 824116560#3 751454885#0 751454885#2 751454885#3 751454885#5 751454884#0 692958945#0 692958945#6 692958945#7 692958943 -156261464#13 -156261464#10 -156261464#8 -156261464#6 -156261464#3 -156261464#2 -156261464#1 156261464#1"/>
    </vehicle>
    <vehicle id="54000_18" depart="54035.64">
        <route edges="-693789399#2 -693789399#1 -693789399#0 -156357491#6 -156357491#1 824816458#0 300825126#0 300825126#0-AddedOffRampEdge 824116561 824116561-AddedOffRampEdge 824816455 824116560#0 824116560#1 824116560#2 824116560#3 751454885#0 751454885#2 751454885#3 751454885#5 751454884#0 751454884#1"/>
    </vehicle>
    <vehicle id="54000_19" depart="54037.62">
        <route edges="61232401#2 -61232401#2 -61232401#1 824456407#2 824456407#3 824456407#6 300825126#0 300825126#0-AddedOffRampEdge 824116561 824116561-AddedOffRampEdge 824816455 824116560#0 824116560#1 824116560#2 824116560#3 751454885#0 751454885#2 751454885#3 751454885#5"/>
    </vehicle>
    <vehicle id="54000_20" depart="54039.60">
        <route edges="153225684#4 153225684#6 153225686#3 824456406 820349335#0 824456405#0 482404745#0 482404745#4 300825126#0 300825126#0-AddedOffRampEdge 824116561 824116561-AddedOffRampEdge 824816455 824116560#0 824116560#1 824116560#2 824116560#3 751454885#0 751454885#2 751454885#3 751454885#5 -450150576#12 -450150576#10 -450150576#6 -450150576#0 -318745828#9 -318745828#8 -318745828#6 -318745828#4 -318745828#2 -318745828#0 -620064364"/>
    </vehicle>
    <vehicle id="54000_21" depart="54041.58">
        <route edges="156357492#3 -156357492#3 -156357492#2 -156357492#1 -156357492#0 156357444#0 -693789399#2 -693789399#1 -693789399#0 -156357491#6 -156357491#1 824816458#0 300825126#0 300825126#0-AddedOffRampEdge 824116561 824116561-AddedOffRampEdge 824816455 824116560#0 824116560#1 824116560#2 824116560#3 751454885#0 751454885#2 751454885#3 751454885#5 751454884#0 692958945#0 692958945#6 692958945#7 692958943 -156261464#13 -156261464#10 -156261464#8 -156261464#6 -156261464#3 -156261464#2 -156261464#1 -156515697#1"/>
    </vehicle>
    <vehicle id="54000_22" depart="54043.56">
        <route edges="824816458#0 300825126#0 300825126#0-AddedOffRampEdge 824116561 824116561-AddedOffRampEdge 824816455 824116560#0 824116560#1 824116560#2 824116560#3 751454885#0 751454885#2 751454885#3"/>
    </vehicle>
    <vehicle id="54000_23" depart="54045.54">
        <route edges="336620983#0 336620983#3 336620983#5 336620983#7 482404745#0 482404745#4 300825126#0 300825126#0-AddedOffRampEdge 824116561 824116561-AddedOffRampEdge 824816455 824116560#0 824116560#1 824116560#2 824116560#3 751454885#0 751454885#2 751454885#3 93727607#0 93727607#2 93727607#4 -318750018#0 442905888#1 -442905888#1"/>
    </vehicle>
    <vehicle id="54000_24" depart="54047.52">
        <route edges="-44573432 -113135397#10 -113135397#8 -113135397#7 -113135397#6 -113135397#4 -113135397#2 -113135397#0 -824456409#5 -824456409#4 -824456409#0 156591171#0 156591171#2 751454885#0 751454885#2 751454885#3 751454885#5 751454884#0 692958945#0 692958945#6 692958945#7 692958943 -156261464#13 -156261464#10 -156261464#8 -156261464#6 -156261464#3 -156261464#2 156357484#0 156515672 -156515672"/>
    </vehicle>
    <vehicle id="54000_25" depart="54049.50">
        <route edges="-438807578#0 61232374#1 -693789434 -61232401#6 -61232401#5 -61232401#4 -61232401#3 -61232401#2 -61232401#1 824456407#2 824456407#3 824456407#6 300825126#0 300825126#0-AddedOffRampEdge 824116561 824116561-AddedOffRampEdge 824816455 824116560#0 824116560#1 824116560#2 824116560#3 751454885#0 751454885#2 751454885#3 751454885#5 751454884#0 692958945#0 692958945#6 692958945#7 692958943 -156261464#13 -156261464#10 -156261464#8 -156261464#6 -156261464#3 -156261464#2 156357484#0 156357484#2 718889435"/>
    </vehicle>
    <vehicle id="54000_26" depart="54051.49">
        <route edges="-61232401#8 -61232401#7 -61232401#6 -61232401#5 -61232401#4 -61232401#3 -61232401#2 -61232401#1 824456407#2 824456407#3 824456407#6 300825126#0 300825126#0-AddedOffRampEdge 824116561 824116561-AddedOffRampEdge 824816455 824116560#0 824116560#1 824116560#2 824116560#3 751454885#0 751454885#2 751454885#3 751454885#5 751454884#0 692958945#0 692958945#6 692958945#7 692958943 -156261464#13 -156261464#10 -156261464#8 -156261464#6 -156261464#3 -156261464#2 156357484#0 -156357484#1"/>
    </vehicle>
    <vehicle id="54000_27" depart="54053.47">
        <route edges="336620983#0 336620983#3 336620983#5 336620983#7 482404745#0 482404745#4 300825126#0 300825126#0-AddedOffRampEdge 824116561 824116561-AddedOffRampEdge 824816455 824116560#0 824116560#1 824116560#2 824116560#3 751454885#0 751454885#2 751454885#3 751454885#5 -450150576#12 -450150576#10 -450150576#6 -450150576#0 -318745828#9 -318745828#8 -318745828#6 -318745828#4 -318745828#2 -318745828#0 -156591254#1 -156591254#0 113135397#20 113135397#21 113135397#22 156496189#0 156496189#1 620064330 -620064330"/>
    </vehicle>
    <vehicle id="54000_28" depart="54055.45">
        <route edges="156357429#0 156357446#1 -156357492#3 -156357492#2 -156357492#1 -156357492#0 156357444#0 -693789399#2 -693789399#1 -693789399#0 -156357491#6 -156357491#1 824816458#0 300825126#0 300825126#0-AddedOffRampEdge 824116561 824116561-AddedOffRampEdge 824816455 824116560#0 824116560#1 824116560#2 824116560#3 751454885#0 751454885#2 751454885#3 751454885#5 450149632#0 450149632#2 156501171#0 156501171#1"/>
    </vehicle>
    <vehicle id="54000_29" depart="54057.43">
        <route edges="28504780#1-AddedOnRampEdge 28504780#1 28504780#1-AddedOffRampEdge 464709118 -521480905#7 -521480905#6 -710018550 -61232401#8 -61232401#7 -61232401#6 -61232401#5 -61232401#4 -61232401#3 -61232401#2 -61232401#1 824456407#2 824456407#3 824456407#6 300825126#0 300825126#0-AddedOffRampEdge 824116561 824116561-AddedOffRampEdge 824816455 824116560#0 824116560#1 824116560#2 824116560#3 751454885#0 751454885#2 751454885#3 751454885#5 -450150576#12 -450150576#10 -450150576#6 -450150576#0 -318745828#9 -318745828#8 -318745828#6 -318745828#4 -318745828#2"/>
    </vehicle>
    <vehicle id="54000_30" depart="54059.41">
        <route edges="-61232377#1 -61232401#3 -61232401#2 -61232401#1 824456407#2 824456407#3 824456407#6 300825126#0 300825126#0-AddedOffRampEdge 824116561 824116561-AddedOffRampEdge 824816455 824116560#0 824116560#1 824116560#2 824116560#3 751454885#0 751454885#2 751454885#3 751454885#5 -450150576#12 -450150576#10 -450150576#6 -450150576#0 -318745828#9"/>
    </vehicle>
    <vehicle id="54000_31" depart="54061.39">
        <route edges="153225686#0 153225686#3 824456406 820349335#0 824456405#0 482404745#0 482404745#4 300825126#0 300825126#0-AddedOffRampEdge 824116561 824116561-AddedOffRampEdge 824816455 824116560#0 824116560#1 824116560#2 824116560#3 751454885#0 751454885#2 751454885#3 751454885#5 751454884#0 692958945#0 -622812930#12 -622812930#1"/>
    </vehicle>
    <vehicle id="54000_32" depart="54063.37">
        <route edges="824456407#3 824456407#6 300825126#0 300825126#0-AddedOffRampEdge 824116561 824116561-AddedOffRampEdge 824816455 824116560#0 824116560#1 824116560#2 824116560#3 751454885#0 751454885#2 751454885#3 751454885#5 751454884#0 692958945#0 692958945#6 692958945#7 692958943 -156261464#13 -156261464#10 -156261464#8 -156261464#6 -156261464#3 -156261464#2 -156261464#1 -156261464#0 44695699#1 -44695699#1"/>
    </vehicle>
    <vehicle id="54000_33" depart="54065.35">
        <route edges="824456408#4 824456407#0 824456407#2 824456407#3 824456407#6 300825126#0 300825126#0-AddedOffRampEdge 824116561 824116561-AddedOffRampEdge 824816455 824116560#0 824116560#1 824116560#2 824116560#3 751454885#0 751454885#2 751454885#3 751454885#5 751454884#0 692958945#0 692958945#6 692958945#7 692958943 -156261464#13 156357489#0 -156357489#0"/>
    </vehicle>
    <vehicle id="54000_34" depart="54067.33">
        <route edges="61232401#6 -61232401#6 -61232401#5 -61232401#4 -61232401#3 -61232401#2 -61232401#1 824456407#2 824456407#3 824456407#6 300825126#0 300825126#0-AddedOffRampEdge 824116561 824116561-AddedOffRampEdge 824816455 824116560#0 824116560#1 824116560#2 824116560#3 751454885#0 751454885#2 751454885#3 751454885#5 751454884#0 692958945#0 692958945#6 692958945#7 692958943 -156261464#13 -156261464#10 -156261464#8 -156261464#6 -156261464#3 -156261464#2 156261464#2"/>
    </vehicle>
    <vehicle id="54000_35" depart="54069.31">
        <route edges="63093786#2 -63093786#2 -63093786#1 336620983#7 482404745#0 482404745#4 300825126#0 300825126#0-AddedOffRampEdge 824116561 824116561-AddedOffRampEdge 824816455 824116560#0 824116560#1 824116560#2 824116560#3 751454885#0 751454885#2 751454885#3 751454885#5 751454884#0 692958945#0 692958945#6 692958945#7 692958943 -156261464#13 156357489#0 156357489#1 156357489#2 -156357489#2"/>
    </vehicle>
    <vehicle id="54000_36" depart="54071.29">
        <route edges="-318706320 318706320 -521480905#6 -710018550 -61232401#8 -61232401#7 -61232401#6 -61232401#5 -61232401#4 -61232401#3 -61232401#2 -61232401#1 824456407#2 824456407#3 824456407#6 300825126#0 300825126#0-AddedOffRampEdge 824116561 824116561-AddedOffRampEdge 824816455 824116560#0 824116560#1 824116560#2 824116560#3 751454885#0 751454885#2 751454885#3 751454885#5 751454884#0 692958945#0 692958945#6 692958945#7 692958943 -156261464#13 -156261464#10 156261506"/>
    </vehicle>
    <vehicle id="54000_37" depart="54073.27">
        <route edges="-113135397#15 -113135397#13 -113135397#12 -113135397#10 -113135397#8 -113135397#7 -113135397#6 -113135397#4 -113135397#2 -113135397#0 -824456409#5 -824456409#4 -824456409#0 156591171#0 156591171#2 751454885#0 751454885#2 751454885#3 751454885#5 -450150576#12 -450150576#10 113135474#0"/>
    </vehicle>
    <vehicle id="54000_38" depart="54075.25">
        <route edges="153225686#0 153225686#3 824456406 820349335#0 824456405#0 482404745#0 482404745#4 300825126#0 300825126#0-AddedOffRampEdge 824116561 824116561-AddedOffRampEdge 824816455 824116560#0 824116560#1 824116560#2 824116560#3 751454885#0 751454885#2 751454885#3 751454885#5 751454884#0 692958945#0 -622812930#12 -622812930#1"/>
    </vehicle>
    <vehicle id="54000_39" depart="54077.23">
        <route edges="-61232377#0 61232377#0 -61232401#3 -61232401#2 -61232401#1 824456407#2 824456407#3 824456407#6 300825126#0 300825126#0-AddedOffRampEdge 824116561 824116561-AddedOffRampEdge 824816455 824116560#0 824116560#1 824116560#2 824116560#3 751454885#0 751454885#2 751454885#3 751454885#5 751454884#0 692958945#0 692958945#6 26575926#0 26575926#1 26575926#2"/>
    </vehicle>
    <vehicle id="54000_40" depart="54079.21">
        <route edges="153225686#3 824456406 820349335#0 824456405#0 482404745#0 482404745#4 300825126#0 300825126#0-AddedOffRampEdge 824116561 824116561-AddedOffRampEdge 824816455 824116560#0 824116560#1 824116560#2 824116560#3 751454885#0 751454885#2 751454885#3 751454885#5 -450150576#12 -450150576#10 -450150576#6 -450150576#0 -318745828#9 -318745828#8 -318745828#6 -318745828#4 -318745828#2 -318745828#0 -156591254#1 -156591254#0 -113135397#19 -113135397#18 -113135397#17 318745820 318745834#0"/>
    </vehicle>
    <vehicle id="54000_41" depart="54081.19">
        <route edges="63093786#0 -63093786#1 336620983#7 482404745#0 482404745#4 300825126#0 300825126#0-AddedOffRampEdge 824116561 824116561-AddedOffRampEdge 824816455 824116560#0 824116560#1 824116560#2 824116560#3 751454885#0 751454885#2 751454885#3 751454885#5 -450150576#12 -450150576#10 -450150576#6 -450150576#0 -318745828#9 -318745828#8 -318745828#6 -318745828#4 318745828#3"/>
    </vehicle>
    <vehicle id="54000_42" depart="54083.17">
        <route edges="-824456409#4 -824456409#0 156591171#0 156591171#2 751454885#0 751454885#2 751454885#3 751454885#5 751454884#0 692958945#0 692958945#6 692958945#7 692958943 -156261464#13 -156261464#10 156357436 -156357436"/>
    </vehicle>
    <vehicle id="54000_43" depart="54085.15">
        <route edges="484458029#1 -484458029#1 -484458029#0 -156357415#3 820349335#0 824456405#0 482404745#0 482404745#4 300825126#0 300825126#0-AddedOffRampEdge 824116561 824116561-AddedOffRampEdge 824816455 824116560#0 824116560#1 824116560#2 824116560#3 751454885#0 751454885#2 751454885#3 751454885#5 -450150576#12 -450150575#2 -450150575#1 -450150575#0 44572159#0 44572159#1 44572159#2"/>
    </vehicle>
    <vehicle id="54000_44" depart="54087.13">
        <route edges="788416575#1 788416575#0 -438794347#0 521480905#0 504358028 718153398#8 -307436705#2 -824456409#4 -824456409#0 156591171#0 156591171#2 751454885#0 751454885#2 751454885#3 93727607#0"/>
    </vehicle>
    <vehicle id="54000_45" depart="54089.11">
        <route edges="824456408#4 824456407#0 824456407#2 824456407#3 824456407#6 300825126#0 300825126#0-AddedOffRampEdge 824116561 824116561-AddedOffRampEdge 824816455 824116560#0 824116560#1 824116560#2 824116560#3 751454885#0 751454885#2 751454885#3 751454885#5 751454884#0 692958945#0 692958945#6 692958945#7 692958943 -156261464#13 156357489#0 156357489#1 156357489#2 156357408 -156357408"/>
    </vehicle>
    <vehicle id="54000_46" depart="54091.09">
        <route edges="156357493#2 710591502#0 -693789399#0 -156357491#6 -156357491#1 824816458#0 300825126#0 300825126#0-AddedOffRampEdge 824116561 824116561-AddedOffRampEdge 824816455 824116560#0 824116560#1 824116560#2 824116560#3 751454885#0 751454885#2 751454885#3 751454885#5 751454884#0 692958945#0 692958945#6 692958945#7 692958943 -156261464#13 -156261464#10 -156261464#8 -156261464#6 -156261464#3 -156261464#2 -156261464#1"/>
    </vehicle>
    <vehicle id="54000_47" depart="54093.07">
        <route edges="504358027 -504358027 521480905#3 -710018550 -61232401#8 -61232401#7 -61232401#6 -61232401#5 -61232401#4 -61232401#3 -61232401#2 -61232401#1 824456407#2 824456407#3 824456407#6 300825126#0 300825126#0-AddedOffRampEdge 824116561 824116561-AddedOffRampEdge 824816455 824116560#0 824116560#1 824116560#2 824116560#3 751454885#0 751454885#2 751454885#3 751454885#5 751454884#0 692958945#0 692958945#6 692958945#7 692958943 -156261464#13 -156261464#10 -156261464#8 -156261464#6 -156261464#3 -156261464#2 156357484#0 156357484#2 156357473#0 156357473#1"/>
    </vehicle>
    <vehicle id="54000_48" depart="54095.05">
        <route edges="312217346#0 312217346#0-AddedOffRampEdge 150557362 26575959 520440860 113135404 824116538#3 824116538#4 751454884#2 751454884#3 93727606#0 -93727606#1"/>
    </vehicle>
    <vehicle id="54000_49" depart="54097.03">
        <route edges="824116560#1 824116560#2 824116560#3 751454885#0 751454885#2 751454885#3 751454885#5 -450150576#12 -450150576#10 -450150576#6 -450150576#0 -318745828#9 -318745828#8 -318745828#6 -318745828#4 -318745828#2 -318745828#0 -156591254#1 -156591254#0 113135397#20 113135397#21 113135397#22 156496189#0 156496189#1 156496189#2 156496189#3 156496189#4 156496189#5 156496189#6 156496189#7 156496189#8 -156496189#8"/>
    </vehicle>
    <vehicle id="54000_50" depart="54099.01">
        <route edges="820349335#0 824456405#0 482404745#0 482404745#4 300825126#0 300825126#0-AddedOffRampEdge 824116561 824116561-AddedOffRampEdge 824816455 824116560#0 824116560#1 824116560#2 824116560#3 751454885#0 751454885#2 751454885#3 751454885#5 -450150576#12 -450150576#10 -450150576#6 -450150576#0 -318745828#9 -318745828#8 -318745828#6 -318745828#4 -318745828#2"/>
    </vehicle>
    <vehicle id="54000_51" depart="54100.99">
        <route edges="622812952 -622812952 -156357489#4 -692958946#1 -692958946#0 -622812957 -622812955#0 113135465#2 113135465#5 824116560#0 824116560#1 824116560#2 824116560#3 751454885#0 751454885#2"/>
    </vehicle>
    <vehicle id="54000_52" depart="54102.97">
        <route edges="710591503#0 -693789399#1 -693789399#0 -156357491#6 -156357491#1 824816458#0 300825126#0 300825126#0-AddedOffRampEdge 824116561 824116561-AddedOffRampEdge 824816455 824116560#0 824116560#1 824116560#2 824116560#3 751454885#0 751454885#2 751454885#3 751454885#5 450149632#0 450149632#2 156501171#0 -156501171#0"/>
    </vehicle>
    <vehicle id="54000_53" depart="54104.95">
        <route edges="156357491#0 -156357491#1 824816458#0 300825126#0 300825126#0-AddedOffRampEdge 824116561 824116561-AddedOffRampEdge 824816455 824116560#0 824116560#1 824116560#2 824116560#3 751454885#0 751454885#2 751454885#3 751454885#5 751454884#0 751454884#1"/>
    </vehicle>
    <vehicle id="54000_54" depart="54106.93">
        <route edges="-156357429#0 -156357449#0 -156357492#2 -156357492#1 -156357492#0 156357444#0 -693789399#2 -693789399#1 -693789399#0 -156357491#6 -156357491#1 824816458#0 300825126#0 300825126#0-AddedOffRampEdge 824116561 824116561-AddedOffRampEdge 824816455 824116560#0 824116560#1 824116560#2 824116560#3 751454885#0 751454885#2 751454885#3 751454885#5 -450150576#12 -450150576#10 -450150576#6 -450150576#0 -318745828#9 -318745828#8 -318745828#6 -318745828#4 -318745828#2 -318745828#0 -156591254#1 -156591254#0 113135397#20 113135397#21"/>
    </vehicle>
    <vehicle id="54000_55" depart="54108.91">
        <route edges="-156357493#0 246969798 156357444#0 -693789399#2 -693789399#1 -693789399#0 -156357491#6 -156357491#1 824816458#0 300825126#0 300825126#0-AddedOffRampEdge 824116561 824116561-AddedOffRampEdge 824816455 824116560#0 824116560#1 824116560#2 824116560#3 751454885#0 751454885#2 751454885#3 751454885#5 751454884#0 692958945#0 692958945#6 692958945#7 692958943 -156261464#13 -156261464#10 -156261464#8 -156261464#6 -156261464#3 -156261464#2 156357484#0 156357484#2 718889435"/>
    </vehicle>
    <vehicle id="54000_56" depart="54110.89">
        <route edges="824116560#3 751454885#0 751454885#2 751454885#3 751454885#5 751454884#0 692958945#0 692958945#6 692958945#7 692958943 -156261464#13 -156261464#10 -156261464#8 -156261464#6 -156261464#3 -156261464#2 -156261464#1"/>
    </vehicle>
    <vehicle id="54000_57" depart="54112.87">
        <route edges="156357492#1 -156357492#1 -156357492#0 156357444#0 -693789399#2 -693789399#1 -693789399#0 -156357491#6 -156357491#1 824816458#0 300825126#0 300825126#0-AddedOffRampEdge 824116561 824116561-AddedOffRampEdge 824816455 824116560#0 824116560#1 824116560#2 824116560#3 751454885#0 751454885#2 751454885#3 751454885#5 751454884#0 692958945#0 692958945#6 692958945#7 692958943 -156261464#13 156357489#0 156357489#1"/>
    </vehicle>
    <vehicle id="54000_58" depart="54114.85">
        <route edges="824456408#4 824456407#0 824456407#2 824456407#3 824456407#6 300825126#0 300825126#0-AddedOffRampEdge 824116561 824116561-AddedOffRampEdge 824816455 824116560#0 824116560#1 824116560#2 824116560#3 751454885#0 751454885#2 751454885#3 751454885#5 751454884#0 692958945#0 692958945#6 692958945#7 692958943 -156261464#13 156357489#0 156357489#1 156357489#2 156357408 -156357408"/>
    </vehicle>
    <vehicle id="54000_59" depart="54116.83">
        <route edges="156357492#1 -156357492#1 -156357492#0 156357444#0 -693789399#2 -693789399#1 -693789399#0 -156357491#6 -156357491#1 824816458#0 300825126#0 300825126#0-AddedOffRampEdge 824116561 824116561-AddedOffRampEdge 824816455 824116560#0 824116560#1 824116560#2 824116560#3 751454885#0 751454885#2 751454885#3 751454885#5 -450150576#12 -450150575#2 -450150575#1 -450150575#0 44572159#0 44572159#1 450150566 -450150566"/>
    </vehicle>
    <vehicle id="54000_60" depart="54118.81">
        <route edges="-318706323 -61232401#4 -61232401#3 -61232401#2 -61232401#1 824456407#2 824456407#3 824456407#6 300825126#0 300825126#0-AddedOffRampEdge 824116561 824116561-AddedOffRampEdge 824816455 824116560#0 824116560#1 824116560#2 824116560#3 751454885#0 751454885#2 751454885#3 751454885#5 751454884#0 692958945#0 692958945#6 692958945#7 692958943 -156261464#13 -156261464#10 -156261464#8 -156261464#6 -156261464#3 -156261464#2 -156261464#1 -156515697#1 -624384854"/>
    </vehicle>
    <vehicle id="54000_61" depart="54120.79">
        <route edges="156591249#0 156591249#1 824456407#0 824456407#2 824456407#3 824456407#6 300825126#0 300825126#0-AddedOffRampEdge 824116561 824116561-AddedOffRampEdge 824816455 824116560#0 824116560#1 824116560#2 824116560#3 751454885#0 751454885#2 751454885#3 751454885#5 -450150576#12 -450150576#10 -450150576#6 -450150576#0 -318745828#9 -318745828#8 -318745828#6 -318745828#4 -318745828#2 -318745828#0 -156591254#1 -156591254#0 113135397#20 113135397#21 113135397#22 156496189#0 156496189#1 156496189#2 156496189#3 620064328"/>
    </vehicle>
    <vehicle id="54000_62" depart="54122.77">
        <route edges="-61232354#1 307436704#0 318706321#0 318706321#2 61232377#0 -61232401#3 -61232401#2 -61232401#1 824456407#2 824456407#3 824456407#6 300825126#0 300825126#0-AddedOffRampEdge 824116561 824116561-AddedOffRampEdge 824816455 824116560#0 824116560#1 824116560#2 824116560#3 751454885#0 751454885#2 751454885#3 751454885#5 751454884#0 692958945#0 692958945#6 692958945#7 692958943 824116539#0"/>
    </vehicle>
    <vehicle id="54000_63" depart="54124.75">
        <route edges="-253201706#1 482404745#4 300825126#0 300825126#0-AddedOffRampEdge 824116561 824116561-AddedOffRampEdge 824816455 824116560#0 824116560#1 824116560#2 824116560#3 751454885#0 751454885#2 751454885#3 93727607#0 93727607#2 93727607#4"/>
    </vehicle>
    <vehicle id="54000_64" depart="54126.73">
        <route edges="336620983#0 336620983#3 336620983#5 336620983#7 482404745#0 482404745#4 300825126#0 300825126#0-AddedOffRampEdge 824116561 824116561-AddedOffRampEdge 824816455 824116560#0 824116560#1 824116560#2 824116560#3 751454885#0 751454885#2 751454885#3 751454885#5 -450150576#12 -450150576#10 -450150576#6 -450150576#0 -318745828#9 -318745828#8 319148808#0"/>
    </vehicle>
    <vehicle id="54000_65" depart="54128.71">
        <route edges="622812952 -622812952 -156357489#4 -692958946#1 -692958946#0 -622812957 -622812955#0 113135465#2 113135465#5 824116560#0 824116560#1 824116560#2 824116560#3 751454885#0 751454885#2"/>
    </vehicle>
    <vehicle id="54000_66" depart="54130.69">
        <route edges="824456409#0 -824456409#0 156591171#0 156591171#2 751454885#0 751454885#2 751454885#3 751454885#5 751454884#0 692958945#0 -622812930#12 -622812930#1 463223680#2"/>
    </vehicle>
    <vehicle id="54000_67" depart="54132.67">