<?xml version="1.0" encoding="UTF-8"?>

<!-- generated on 07/17/20 21:28:30 by Eclipse SUMO GUI Version 1.6.0
-->

<configuration xmlns:xsi="http://www.w3.org/2001/XMLSchema-instance" xsi:noNamespaceSchemaLocation="http://sumo.dlr.de/xsd/sumoConfiguration.xsd">

    <input>
        <net-file value="KasemRat_grid_lock.net.xml"/>
        <route-files value="KasemRat_grid_lock.rou.xml"/>
		<additional-files value="KasemRat_grid_lock.add.xml"/>
    </input>

</configuration>
