<?xml version="1.0" encoding="UTF-8"?>

<!-- generated on 01/17/21 09:41:20 by Eclipse SUMO duarouter Version 1.6.0
<configuration xmlns:xsi="http://www.w3.org/2001/XMLSchema-instance" xsi:noNamespaceSchemaLocation="http://sumo.dlr.de/xsd/duarouterConfiguration.xsd">

    <input>
        <net-file value="KasemRat_grid_lock.net.xml"/>
        <route-files value="osm.passenger.trips.xml"/>
    </input>

    <output>
        <output-file value="osm.passenger.trips.xml.tmp"/>
        <write-trips value="true"/>
    </output>

    <time>
        <begin value="0"/>
        <end value="3600.0"/>
    </time>

    <report>
        <no-warnings value="true"/>
        <ignore-errors value="true"/>
        <no-step-log value="true"/>
    </report>

</configuration>
-->

<routes xmlns:xsi="http://www.w3.org/2001/XMLSchema-instance" xsi:noNamespaceSchemaLocation="http://sumo.dlr.de/xsd/routes_file.xsd">
    <vType id="veh_passenger" vClass="passenger"/>
    <trip id="veh0" type="veh_passenger" depart="0.00" departLane="best" from="377292919#5" to="-156261414#6"/>
    <trip id="veh2" type="veh_passenger" depart="3.19" departLane="best" from="480596357" to="452179357#5"/>
    <trip id="veh3" type="veh_passenger" depart="4.79" departLane="best" from="712645080" to="-25804866#1"/>
    <trip id="veh4" type="veh_passenger" depart="6.38" departLane="best" departSpeed="max" from="178173932#0" to="-156261430"/>
    <trip id="veh5" type="veh_passenger" depart="7.98" departLane="best" from="-692683968" to="25046128"/>
    <trip id="veh7" type="veh_passenger" depart="11.17" departLane="best" from="384633624#0" to="25505554#1"/>
    <trip id="veh8" type="veh_passenger" depart="12.77" departLane="best" from="-693831973" to="300803484"/>
    <trip id="veh10" type="veh_passenger" depart="15.96" departLane="best" from="613460014#4" to="459492913#0"/>
    <trip id="veh12" type="veh_passenger" depart="19.15" departLane="best" from="824116556#0" to="156261504#4"/>
    <trip id="veh13" type="veh_passenger" depart="20.75" departLane="best" from="613461635#0" to="480596363"/>
    <trip id="veh15" type="veh_passenger" depart="23.94" departLane="best" from="157373201#1" to="258200369#0"/>
    <trip id="veh16" type="veh_passenger" depart="25.54" departLane="best" from="630160210#0" to="335977387"/>
    <trip id="veh17" type="veh_passenger" depart="27.13" departLane="best" from="693449409#10" to="295210254"/>
    <trip id="veh18" type="veh_passenger" depart="28.73" departLane="best" from="459492916#0" to="-156357426"/>
    <trip id="veh20" type="veh_passenger" depart="31.92" departLane="best" from="-25505561#14" to="-707581804"/>
    <trip id="veh21" type="veh_passenger" depart="33.52" departLane="best" from="377279918#0" to="156970499-AddedOffRampEdge"/>
    <trip id="veh22" type="veh_passenger" depart="35.11" departLane="best" from="156970499" to="-655339138"/>
    <trip id="veh23" type="veh_passenger" depart="36.71" departLane="best" from="145575049" to="820345543"/>
    <trip id="veh25" type="veh_passenger" depart="39.90" departLane="best" from="-613455563#1" to="480596363"/>
    <trip id="veh26" type="veh_passenger" depart="41.50" departLane="best" from="-595984943#1" to="157373206#12"/>
    <trip id="veh28" type="veh_passenger" depart="44.69" departLane="best" from="25715414#0" to="453670278"/>
    <trip id="veh30" type="veh_passenger" depart="47.88" departLane="best" from="-697668091" to="-156261436#3"/>
    <trip id="veh32" type="veh_passenger" depart="51.07" departLane="best" from="-680866644" to="820373194#0"/>
    <trip id="veh33" type="veh_passenger" depart="52.67" departLane="best" from="707581805" to="156261366#1"/>
    <trip id="veh34" type="veh_passenger" depart="54.26" departLane="best" from="384643725#0" to="157373210#2-AddedOffRampEdge"/>
    <trip id="veh35" type="veh_passenger" depart="55.86" departLane="best" from="145573675#2" to="-761650946#1"/>
    <trip id="veh36" type="veh_passenger" depart="57.46" departLane="best" from="25828822" to="-809900341"/>
    <trip id="veh37" type="veh_passenger" depart="59.05" departLane="best" from="30046784#1" to="753173500"/>
    <trip id="veh38" type="veh_passenger" depart="60.65" departLane="best" from="157373210#1" to="-690642682#3"/>
    <trip id="veh39" type="veh_passenger" depart="62.24" departLane="best" from="gneE27" to="25046556#1-AddedOnRampEdge"/>
    <trip id="veh40" type="veh_passenger" depart="63.84" departLane="best" from="-295213513#1" to="-156465598"/>
    <trip id="veh41" type="veh_passenger" depart="65.44" departLane="best" from="-377279917#3" to="353583726#2"/>
    <trip id="veh42" type="veh_passenger" depart="67.03" departLane="best" from="595984942" to="178872812#0-AddedOffRampEdge"/>
    <trip id="veh43" type="veh_passenger" depart="68.63" departLane="best" from="-211040189#2" to="157373206#2"/>
    <trip id="veh44" type="veh_passenger" depart="70.22" departLane="best" from="9168676" to="25048001#3"/>
    <trip id="veh45" type="veh_passenger" depart="71.82" departLane="best" from="825786397" to="693832198"/>
    <trip id="veh46" type="veh_passenger" depart="73.41" departLane="best" from="-153714072#1" to="466838066#0"/>
    <trip id="veh47" type="veh_passenger" depart="75.01" departLane="best" from="452179357#1" to="25053655#0-AddedOffRampEdge"/>
    <trip id="veh48" type="veh_passenger" depart="76.61" departLane="best" from="145575049" to="377292926#3"/>
    <trip id="veh49" type="veh_passenger" depart="78.20" departLane="best" from="-377279920#1" to="185059750"/>
    <trip id="veh50" type="veh_passenger" depart="79.80" departLane="best" from="198802017" to="824116548"/>
    <trip id="veh51" type="veh_passenger" depart="81.39" departLane="best" from="707581804" to="-809900342#1"/>
    <trip id="veh52" type="veh_passenger" depart="82.99" departLane="best" from="230833233" to="-613461634"/>
    <trip id="veh53" type="veh_passenger" depart="84.59" departLane="best" from="76510939#0" to="707855492#2"/>
    <trip id="veh54" type="veh_passenger" depart="86.18" departLane="best" from="154579450#2" to="377292919#4"/>
    <trip id="veh55" type="veh_passenger" depart="87.78" departLane="best" from="300813736#3" to="-465431247"/>
    <trip id="veh56" type="veh_passenger" depart="89.37" departLane="best" from="482209833#0" to="25292712#0"/>
    <trip id="veh57" type="veh_passenger" depart="90.97" departLane="best" from="53207968" to="25053183#1"/>
    <trip id="veh58" type="veh_passenger" depart="92.57" departLane="best" from="-145573669" to="156261434#8"/>
    <trip id="veh60" type="veh_passenger" depart="95.76" departLane="best" from="154579511#2" to="-170066045#2"/>
    <trip id="veh61" type="veh_passenger" depart="97.35" departLane="best" from="707855492#1" to="820373198#0"/>
    <trip id="veh62" type="veh_passenger" depart="98.95" departLane="best" from="-26529969" to="230833233"/>
    <trip id="veh63" type="veh_passenger" depart="100.55" departLane="best" from="-25026382#1" to="482384848#1"/>
    <trip id="veh64" type="veh_passenger" depart="102.14" departLane="best" from="482384842#1-AddedOnRampEdge" to="-384643717#0"/>
    <trip id="veh65" type="veh_passenger" depart="103.74" departLane="best" from="210884217#1-AddedOffRampEdge" to="25715414#0"/>
    <trip id="veh66" type="veh_passenger" depart="105.33" departLane="best" from="145573675#2" to="708155016#3"/>
    <trip id="veh67" type="veh_passenger" depart="106.93" departLane="best" departSpeed="max" from="178173932#0" to="-674861725#1"/>
    <trip id="veh68" type="veh_passenger" depart="108.53" departLane="best" from="25053190" to="480596363"/>
    <trip id="veh69" type="veh_passenger" depart="110.12" departLane="best" from="-630391755#5" to="156261358#7"/>
    <trip id="veh71" type="veh_passenger" depart="113.31" departLane="best" from="-384633624#2" to="-693832664"/>
    <trip id="veh72" type="veh_passenger" depart="114.91" departLane="best" from="156261447#1" to="300803482"/>
    <trip id="veh73" type="veh_passenger" depart="116.51" departLane="best" from="-707547409" to="-690642684"/>
    <trip id="veh74" type="veh_passenger" depart="118.10" departLane="best" from="-25048001#2" to="377279912"/>
    <trip id="veh75" type="veh_passenger" depart="119.70" departLane="best" from="-697668091" to="758274454"/>
    <trip id="veh76" type="veh_passenger" depart="121.29" departLane="best" from="692683969" to="-249375356"/>
    <trip id="veh77" type="veh_passenger" depart="122.89" departLane="best" from="-710591533" to="45033613#1"/>
    <trip id="veh78" type="veh_passenger" depart="124.49" departLane="best" from="-688591738#1" to="-415179425#0"/>
    <trip id="veh79" type="veh_passenger" depart="126.08" departLane="best" from="820373194#0" to="292576585#1-AddedOnRampEdge"/>
    <trip id="veh80" type="veh_passenger" depart="127.68" departLane="best" departSpeed="max" from="208977366" to="595984943#0"/>
    <trip id="veh82" type="veh_passenger" depart="130.87" departLane="best" from="-339272279" to="185059748"/>
    <trip id="veh85" type="veh_passenger" depart="135.66" departLane="best" from="825786416" to="-328942767#1"/>
    <trip id="veh87" type="veh_passenger" depart="138.85" departLane="best" from="693449409#10" to="-76510933#5"/>
    <trip id="veh88" type="veh_passenger" depart="140.45" departLane="best" from="-630160210#0" to="198975428#2-AddedOnRampEdge"/>
    <trip id="veh89" type="veh_passenger" depart="142.04" departLane="best" departSpeed="max" from="178173932#0" to="153225678#1"/>
    <trip id="veh92" type="veh_passenger" depart="146.83" departLane="best" from="25505423#6" to="-156465659"/>
    <trip id="veh93" type="veh_passenger" depart="148.43" departLane="best" departSpeed="max" from="gneE28" to="630847768#0"/>
    <trip id="veh94" type="veh_passenger" depart="150.02" departLane="best" from="825786395#0" to="809900342#1"/>
    <trip id="veh95" type="veh_passenger" depart="151.62" departLane="best" from="674859970#2" to="-595984944#1"/>
    <trip id="veh97" type="veh_passenger" depart="154.81" departLane="best" from="157373210#2-AddedOffRampEdge" to="-170066045#3"/>
    <trip id="veh98" type="veh_passenger" depart="156.41" departLane="best" from="157373201#1" to="825786410"/>
    <trip id="veh99" type="veh_passenger" depart="158.00" departLane="best" from="145573675#2" to="595984942"/>
    <trip id="veh101" type="veh_passenger" depart="161.19" departLane="best" from="824116556#0" to="825786433#3"/>
    <trip id="veh102" type="veh_passenger" depart="162.79" departLane="best" from="25505561#8" to="462260865#2"/>
    <trip id="veh103" type="veh_passenger" depart="164.39" departLane="best" from="-546529776" to="154579460#2"/>
    <trip id="veh105" type="veh_passenger" depart="167.58" departLane="best" from="25053655#0" to="482209831#0"/>
    <trip id="veh107" type="veh_passenger" depart="170.77" departLane="best" departSpeed="max" from="249375356" to="693449409#0"/>
    <trip id="veh108" type="veh_passenger" depart="172.37" departLane="best" from="-25505561#3" to="-622569036"/>
    <trip id="veh109" type="veh_passenger" depart="173.96" departLane="best" from="300803489#2" to="452179357#1"/>
    <trip id="veh110" type="veh_passenger" depart="175.56" departLane="best" from="-708155016#8" to="-377292930#0"/>
    <trip id="veh111" type="veh_passenger" depart="177.15" departLane="best" from="710591538" to="-751759907"/>
    <trip id="veh112" type="veh_passenger" depart="178.75" departLane="best" from="300803489#2" to="338595767"/>
    <trip id="veh114" type="veh_passenger" depart="181.94" departLane="best" from="25046707#0-AddedOffRampEdge" to="820345543"/>
    <trip id="veh115" type="veh_passenger" depart="183.54" departLane="best" from="-630391758#2" to="462260865#1"/>
    <trip id="veh116" type="veh_passenger" depart="185.13" departLane="best" from="-710591535" to="157373210#2-AddedOffRampEdge"/>
    <trip id="veh117" type="veh_passenger" depart="186.73" departLane="best" from="452032719" to="154579460#6"/>
    <trip id="veh118" type="veh_passenger" depart="188.33" departLane="best" from="154774068#3" to="482209833#1"/>
    <trip id="veh119" type="veh_passenger" depart="189.92" departLane="best" from="-25053186" to="198975461"/>
    <trip id="veh120" type="veh_passenger" depart="191.52" departLane="best" departSpeed="max" from="gneE28" to="825786433#6"/>
    <trip id="veh121" type="veh_passenger" depart="193.11" departLane="best" from="-25053188#2" to="-680866644"/>
    <trip id="veh122" type="veh_passenger" depart="194.71" departLane="best" from="145573675#2" to="820345543"/>
    <trip id="veh123" type="veh_passenger" depart="196.31" departLane="best" from="708155016#6" to="710591530#1"/>
    <trip id="veh125" type="veh_passenger" depart="199.50" departLane="best" from="630391750#0" to="459492916#0"/>
    <trip id="veh126" type="veh_passenger" depart="201.09" departLane="best" from="307439946#1" to="825786414"/>
    <trip id="veh128" type="veh_passenger" depart="204.29" departLane="best" from="622505597" to="154579460#6"/>
    <trip id="veh129" type="veh_passenger" depart="205.88" departLane="best" from="41574017#1" to="820345543"/>
    <trip id="veh130" type="veh_passenger" depart="207.48" departLane="best" from="-377279914#1" to="258200369#1"/>
    <trip id="veh131" type="veh_passenger" depart="209.07" departLane="best" from="145575469#9" to="300803492#7"/>
    <trip id="veh134" type="veh_passenger" depart="213.86" departLane="best" from="211040162-AddedOffRampEdge" to="758274454"/>
    <trip id="veh135" type="veh_passenger" depart="215.46" departLane="best" from="630897879#1" to="-292571831#8"/>
    <trip id="veh136" type="veh_passenger" depart="217.05" departLane="best" departSpeed="max" from="178173932#0" to="153225678#0"/>
    <trip id="veh137" type="veh_passenger" depart="218.65" departLane="best" from="-145573675#4" to="53271887#0"/>
    <trip id="veh138" type="veh_passenger" depart="220.24" departLane="best" from="377279920#2" to="-783785580"/>
    <trip id="veh139" type="veh_passenger" depart="221.84" departLane="best" from="480596363" to="258200369#0"/>
    <trip id="veh141" type="veh_passenger" depart="225.03" departLane="best" departSpeed="max" from="753196697#0" to="25505561#0"/>
    <trip id="veh142" type="veh_passenger" depart="226.63" departLane="best" from="630391751#0" to="30046784#2-AddedOnRampEdge"/>
    <trip id="veh143" type="veh_passenger" depart="228.22" departLane="best" from="-464252889#1" to="-384643713"/>
    <trip id="veh144" type="veh_passenger" depart="229.82" departLane="best" from="154579511#5" to="753173500"/>
    <trip id="veh146" type="veh_passenger" depart="233.01" departLane="best" from="751759907" to="-666592942"/>
    <trip id="veh148" type="veh_passenger" depart="236.20" departLane="best" from="53207970#3" to="710591542"/>
    <trip id="veh149" type="veh_passenger" depart="237.80" departLane="best" departSpeed="max" from="158010310" to="338595771#1"/>
    <trip id="veh150" type="veh_passenger" depart="239.40" departLane="best" from="-546529776" to="820340552#1"/>
    <trip id="veh151" type="veh_passenger" depart="240.99" departLane="best" from="693449409#4" to="825786395#0"/>
    <trip id="veh152" type="veh_passenger" depart="242.59" departLane="best" from="618739071" to="710591535"/>
    <trip id="veh153" type="veh_passenger" depart="244.18" departLane="best" from="-156261414#4" to="481971011#1"/>
    <trip id="veh154" type="veh_passenger" depart="245.78" departLane="best" from="156261436#0" to="820340552#1"/>
    <trip id="veh155" type="veh_passenger" depart="247.38" departLane="best" from="613455573" to="693832673#1"/>
    <trip id="veh157" type="veh_passenger" depart="250.57" departLane="best" from="552779154#1" to="-353583729#1"/>
    <trip id="veh158" type="veh_passenger" depart="252.16" departLane="best" from="693832673#2" to="693449409#5"/>
    <trip id="veh159" type="veh_passenger" depart="253.76" departLane="best" from="-693832664" to="623024281#0"/>
    <trip id="veh160" type="veh_passenger" depart="255.36" departLane="best" from="198975441#6" to="154773997#0"/>
    <trip id="veh163" type="veh_passenger" depart="260.14" departLane="best" from="156261422#5" to="693832673#2"/>
    <trip id="veh164" type="veh_passenger" depart="261.74" departLane="best" from="825786383#0" to="153225678#1"/>
    <trip id="veh165" type="veh_passenger" depart="263.34" departLane="best" from="377292926#4" to="158010315"/>
    <trip id="veh166" type="veh_passenger" depart="264.93" departLane="best" from="820373198#0" to="-377279920#0"/>
    <trip id="veh167" type="veh_passenger" depart="266.53" departLane="best" from="825786397" to="-613461634"/>
    <trip id="veh169" type="veh_passenger" depart="269.72" departLane="best" from="-377279916" to="185059750"/>
    <trip id="veh170" type="veh_passenger" depart="271.32" departLane="best" from="462260865#1" to="156261365#0"/>
    <trip id="veh171" type="veh_passenger" depart="272.91" departLane="best" from="300813736#0" to="25046707#0-AddedOffRampEdge"/>
    <trip id="veh172" type="veh_passenger" depart="274.51" departLane="best" from="157373206#10-AddedOffRampEdge" to="294808467#2"/>
    <trip id="veh173" type="veh_passenger" depart="276.10" departLane="best" from="-783785003#0" to="459551209#0"/>
    <trip id="veh174" type="veh_passenger" depart="277.70" departLane="best" from="-145573672#1" to="794215578"/>
    <trip id="veh175" type="veh_passenger" depart="279.30" departLane="best" from="25053188#0" to="464252889#1"/>
    <trip id="veh176" type="veh_passenger" depart="280.89" departLane="best" from="480596364" to="450629008"/>
    <trip id="veh177" type="veh_passenger" depart="282.49" departLane="best" from="156966564" to="-249375356"/>
    <trip id="veh178" type="veh_passenger" depart="284.08" departLane="best" from="41574018#1" to="156261446#2"/>
    <trip id="veh179" type="veh_passenger" depart="285.68" departLane="best" departSpeed="max" from="154774068#0" to="688591738#3"/>
    <trip id="veh180" type="veh_passenger" depart="287.28" departLane="best" departSpeed="max" from="462260865#0" to="154579460#6"/>
    <trip id="veh182" type="veh_passenger" depart="290.47" departLane="best" from="-415179424#0" to="178872812#0"/>
    <trip id="veh183" type="veh_passenger" depart="292.06" departLane="best" from="821785867" to="452179357#5"/>
    <trip id="veh184" type="veh_passenger" depart="293.66" departLane="best" departSpeed="max" from="753196697#0" to="321845933#3"/>
    <trip id="veh185" type="veh_passenger" depart="295.26" departLane="best" from="154579460#2-AddedOffRampEdge" to="25505561#7"/>
    <trip id="veh186" type="veh_passenger" depart="296.85" departLane="best" from="-145573669" to="153225687#10-AddedOffRampEdge"/>
    <trip id="veh187" type="veh_passenger" depart="298.45" departLane="best" from="178872812#2" to="30046784#1"/>
    <trip id="veh188" type="veh_passenger" depart="300.04" departLane="best" from="384643724#0" to="210294522"/>
    <trip id="veh190" type="veh_passenger" depart="303.24" departLane="best" departSpeed="max" from="208977366" to="753173500"/>
    <trip id="veh192" type="veh_passenger" depart="306.43" departLane="best" from="377279914#2" to="156261499"/>
    <trip id="veh194" type="veh_passenger" depart="309.62" departLane="best" from="452045739" to="-693832664"/>
    <trip id="veh195" type="veh_passenger" depart="311.22" departLane="best" from="-630391754" to="-156261381#4"/>
    <trip id="veh196" type="veh_passenger" depart="312.81" departLane="best" from="-76510919#1" to="211040189#0"/>
    <trip id="veh197" type="veh_passenger" depart="314.41" departLane="best" from="674860565" to="-25026382#0"/>
    <trip id="veh198" type="veh_passenger" depart="316.00" departLane="best" from="170065517#0" to="353583730#0"/>
    <trip id="veh199" type="veh_passenger" depart="317.60" departLane="best" from="-630391749" to="459492912#1"/>
    <trip id="veh200" type="veh_passenger" depart="319.20" departLane="best" from="211040207#1" to="-714103877#0"/>
    <trip id="veh202" type="veh_passenger" depart="322.39" departLane="best" from="481971011#1-AddedOnRampEdge" to="53271857#0"/>
    <trip id="veh203" type="veh_passenger" depart="323.98" departLane="best" from="-377279914#0" to="178872812#3"/>
    <trip id="veh204" type="veh_passenger" depart="325.58" departLane="best" from="-613460014#4" to="824116551#0"/>
    <trip id="veh205" type="veh_passenger" depart="327.18" departLane="best" from="25046556#1" to="-156465658#3"/>
    <trip id="veh208" type="veh_passenger" depart="331.96" departLane="best" from="449094844" to="825786415"/>
    <trip id="veh209" type="veh_passenger" depart="333.56" departLane="best" from="300803489#2" to="824116543"/>
    <trip id="veh210" type="veh_passenger" depart="335.16" departLane="best" from="710591541" to="321845932#1"/>
    <trip id="veh211" type="veh_passenger" depart="336.75" departLane="best" departSpeed="max" from="462260865#0" to="25045362-AddedOffRampEdge"/>
    <trip id="veh212" type="veh_passenger" depart="338.35" departLane="best" from="630160210#3" to="25505561#7"/>
    <trip id="veh213" type="veh_passenger" depart="339.94" departLane="best" from="749981040#2" to="481971013#1-AddedOnRampEdge"/>
    <trip id="veh214" type="veh_passenger" depart="341.54" departLane="best" from="210884217#1" to="-783785575#0"/>
    <trip id="veh215" type="veh_passenger" depart="343.14" departLane="best" from="-76510937#0" to="377279921#1"/>
    <trip id="veh216" type="veh_passenger" depart="344.73" departLane="best" from="482384842#1-AddedOnRampEdge" to="25047974#0"/>
    <trip id="veh218" type="veh_passenger" depart="347.92" departLane="best" from="-25505534#1" to="153225687#10"/>
    <trip id="veh219" type="veh_passenger" depart="349.52" departLane="best" from="145575469#7" to="156261422#2"/>
    <trip id="veh220" type="veh_passenger" depart="351.11" departLane="best" from="25053626" to="-41574018#1"/>
    <trip id="veh221" type="veh_passenger" depart="352.71" departLane="best" from="-707855492#0" to="459492908#1"/>
    <trip id="veh223" type="veh_passenger" depart="355.90" departLane="best" from="158010317" to="25505423#5"/>
    <trip id="veh224" type="veh_passenger" depart="357.50" departLane="best" from="170065517#4" to="-630847768#1"/>
    <trip id="veh226" type="veh_passenger" depart="360.69" departLane="best" departSpeed="max" from="30046784#0" to="459492912#0"/>
    <trip id="veh227" type="veh_passenger" depart="362.29" departLane="best" from="690642682#0" to="482384850#2"/>
    <trip id="veh229" type="veh_passenger" depart="365.48" departLane="best" departSpeed="max" from="156966520" to="482384842#0"/>
    <trip id="veh230" type="veh_passenger" depart="367.07" departLane="best" from="684549567" to="824116547"/>
    <trip id="veh233" type="veh_passenger" depart="371.86" departLane="best" from="-693831973" to="-690642682#4"/>
    <trip id="veh234" type="veh_passenger" depart="373.46" departLane="best" from="178872818#1" to="-156261422#5"/>
    <trip id="veh235" type="veh_passenger" depart="375.05" departLane="best" from="156261444#6" to="453632988#0"/>
    <trip id="veh236" type="veh_passenger" depart="376.65" departLane="best" departSpeed="max" from="158010310" to="-595984940#0"/>
    <trip id="veh237" type="veh_passenger" depart="378.25" departLane="best" departSpeed="max" from="198975482" to="-384643713"/>
    <trip id="veh238" type="veh_passenger" depart="379.84" departLane="best" from="340089692#0" to="-156261422#13"/>
    <trip id="veh239" type="veh_passenger" depart="381.44" departLane="best" from="157373206#7-AddedOnRampEdge" to="292571830"/>
    <trip id="veh240" type="veh_passenger" depart="383.03" departLane="best" from="-156261422#13" to="377292928#2"/>
    <trip id="veh241" type="veh_passenger" depart="384.63" departLane="best" from="-419811450" to="198975491#1"/>
    <trip id="veh242" type="veh_passenger" depart="386.23" departLane="best" from="-158065686#1" to="157373206#12"/>
    <trip id="veh243" type="veh_passenger" depart="387.82" departLane="best" from="-684549565#2" to="156261441#9"/>
    <trip id="veh244" type="veh_passenger" depart="389.42" departLane="best" from="482209831#2" to="157373206#12"/>
    <trip id="veh246" type="veh_passenger" depart="392.61" departLane="best" from="-783785001#7" to="-25505554#0"/>
    <trip id="veh247" type="veh_passenger" depart="394.21" departLane="best" from="-156261354#2" to="25292712#0"/>
    <trip id="veh249" type="veh_passenger" depart="397.40" departLane="best" from="384633624#2" to="55814053#5"/>
    <trip id="veh250" type="veh_passenger" depart="398.99" departLane="best" from="384643705#5" to="482384842#1-AddedOnRampEdge"/>
    <trip id="veh252" type="veh_passenger" depart="402.19" departLane="best" from="-156261361#1" to="-464252890"/>
    <trip id="veh253" type="veh_passenger" depart="403.78" departLane="best" from="-384643725#1" to="45033613#1"/>
    <trip id="veh254" type="veh_passenger" depart="405.38" departLane="best" from="27702347#0" to="-690642682#0"/>
    <trip id="veh255" type="veh_passenger" depart="406.97" departLane="best" from="459492912#1" to="53207968"/>
    <trip id="veh257" type="veh_passenger" depart="410.17" departLane="best" from="481971011#1" to="-377279918#1"/>
    <trip id="veh259" type="veh_passenger" depart="413.36" departLane="best" from="-377279916" to="-156261414#7"/>
    <trip id="veh260" type="veh_passenger" depart="414.95" departLane="best" departSpeed="max" from="154774068#0" to="452179357#5"/>
    <trip id="veh261" type="veh_passenger" depart="416.55" departLane="best" from="824116556#2" to="157373211"/>
    <trip id="veh263" type="veh_passenger" depart="419.74" departLane="best" from="453962283#0" to="353583726#2"/>
    <trip id="veh264" type="veh_passenger" depart="421.34" departLane="best" from="-353583726#1" to="546529776"/>
    <trip id="veh265" type="veh_passenger" depart="422.93" departLane="best" from="178872812#0-AddedOffRampEdge" to="157373201#0-AddedOffRampEdge"/>
    <trip id="veh266" type="veh_passenger" depart="424.53" departLane="best" from="25026501" to="156465658#2"/>
    <trip id="veh268" type="veh_passenger" depart="427.72" departLane="best" from="-377279911" to="824116554"/>
    <trip id="veh270" type="veh_passenger" depart="430.91" departLane="best" from="459492916#0-AddedOffRampEdge" to="185059750"/>
    <trip id="veh271" type="veh_passenger" depart="432.51" departLane="best" from="466838066#1" to="824116556#0"/>
    <trip id="veh272" type="veh_passenger" depart="434.11" departLane="best" from="25053188#0" to="211040223#3"/>
    <trip id="veh274" type="veh_passenger" depart="437.30" departLane="best" from="145575469#0" to="692683969"/>
    <trip id="veh275" type="veh_passenger" depart="438.89" departLane="best" from="630160211#0" to="-25700007"/>
    <trip id="veh277" type="veh_passenger" depart="442.09" departLane="best" departSpeed="max" from="198975482" to="307439944"/>
    <trip id="veh278" type="veh_passenger" depart="443.68" departLane="best" from="157373201#1" to="-156261422#4"/>
    <trip id="veh279" type="veh_passenger" depart="445.28" departLane="best" from="674861725#2" to="-622505601"/>
    <trip id="veh280" type="veh_passenger" depart="446.87" departLane="best" from="-684549566" to="613460014#3"/>
    <trip id="veh282" type="veh_passenger" depart="450.07" departLane="best" from="-146616743#3" to="821785867"/>
    <trip id="veh283" type="veh_passenger" depart="451.66" departLane="best" from="-26529969" to="465431247"/>
    <trip id="veh284" type="veh_passenger" depart="453.26" departLane="best" from="211040162-AddedOffRampEdge" to="482384843"/>
    <trip id="veh285" type="veh_passenger" depart="454.85" departLane="best" from="453962283#0" to="383596740"/>
    <trip id="veh287" type="veh_passenger" depart="458.05" departLane="best" from="-307439946#2" to="-693779343#0"/>
    <trip id="veh288" type="veh_passenger" depart="459.64" departLane="best" from="454157223" to="154773997#14"/>
    <trip id="veh290" type="veh_passenger" depart="462.83" departLane="best" from="25047974#1" to="178872812#3"/>
    <trip id="veh291" type="veh_passenger" depart="464.43" departLane="best" from="481971011#0" to="156261447#1"/>
    <trip id="veh293" type="veh_passenger" depart="467.62" departLane="best" from="-783785001#3" to="-377292930#3"/>
    <trip id="veh294" type="veh_passenger" depart="469.22" departLane="best" from="-630160216" to="-377292928#3"/>
    <trip id="veh295" type="veh_passenger" depart="470.81" departLane="best" from="25048001#2" to="482384850#0"/>
    <trip id="veh296" type="veh_passenger" depart="472.41" departLane="best" from="-623024279" to="-688591738#2"/>
    <trip id="veh298" type="veh_passenger" depart="475.60" departLane="best" from="-630391748#1" to="-693832670"/>
    <trip id="veh300" type="veh_passenger" depart="478.79" departLane="best" from="825786399" to="258200369#1"/>
    <trip id="veh301" type="veh_passenger" depart="480.39" departLane="best" from="459492912#0" to="-384643705#7"/>
    <trip id="veh302" type="veh_passenger" depart="481.99" departLane="best" from="693782228" to="25044852#0-AddedOffRampEdge"/>
    <trip id="veh304" type="veh_passenger" depart="485.18" departLane="best" from="198975492#0" to="189773022#0"/>
    <trip id="veh305" type="veh_passenger" depart="486.77" departLane="best" from="-623024274" to="-156966567"/>
    <trip id="veh307" type="veh_passenger" depart="489.96" departLane="best" from="622569036" to="158010315"/>
    <trip id="veh308" type="veh_passenger" depart="491.56" departLane="best" from="-25053190" to="353583729#1"/>
    <trip id="veh310" type="veh_passenger" depart="494.75" departLane="best" from="26529969" to="154579511#2"/>
    <trip id="veh311" type="veh_passenger" depart="496.35" departLane="best" from="825786433#6" to="-377292928#0"/>