<?xml version="1.0" encoding="UTF-8"?>
<!-- generated on 2021-01-17 09:52:12.391493 by cutRoutes.py v1_6_0+0003-190709904e
  options: KasemRat_grid_lock.net.xml routes.rou.xml <doubleminus>routes-output routes_new_output.rou.xml <doubleminus>orig-net KasemRat_grid_lock.net.xml
-->
<routes xmlns:xsi="http://www.w3.org/2001/XMLSchema-instance" xsi:noNamespaceSchemaLocation="http://sumo.dlr.de/xsd/routes_file.xsd">
    <vType id="veh_passenger" vClass="passenger"/>
    <vehicle depart="0.00" departLane="best" id="veh0" type="veh_passenger">
        <route edges="377292919#5 -377292919#5 -377292919#4 -377292919#3 377292926#5 157373206#7-AddedOnRampEdge 157373206#7 157373206#10 157373206#10-AddedOffRampEdge 198975516 198975441#1 198975441#6 198975441#6-AddedOffRampEdge 198975441#8 198975441#9 198975441#10-AddedOnRampEdge 198975441#10 178872818#0 178872818#1 157373210#0-AddedOnRampEdge 157373210#0 157373210#1 157373210#2 157373210#2-AddedOffRampEdge 157373209#0 157373209#1 756119203 25047032#1 824116558 824116559#0 25053626 338595771#1 824116547 824116548 824116545 153225678#0 153225678#1-AddedOnRampEdge 153225678#1 156261361#0 156261361#2 415179427 693832665 25828935 -156261414#8 -156261414#7 -156261414#6"/>
    </vehicle>
    <vehicle depart="3.19" departLane="best" id="veh2" type="veh_passenger">
        <route edges="480596357 480596361 300803492#0 300803492#1 300803492#2 25505554#0 25505554#1 25505554#2 674861725#0 674861725#1 674861725#2 25505561#7 25505561#8 25505561#9 25505561#12 25505561#14 25505561#15 -464252889#1 -464252889#0 -708155016#8 -708155016#6 756119203 25047032#1 824116558 824116559#0 25053626 338595771#1 824116547 824116548 824116545 153225678#0 153225678#1-AddedOnRampEdge 153225678#1 153225678#2 153225678#3 820340552#0 820340552#1 820340552#2 -27702347#8 -27702347#5 -27702347#3 -328942767#26 -328942767#16 -328942767#3 -328942767#1 452179357#5"/>
    </vehicle>
    <vehicle depart="4.79" departLane="best" id="veh3" type="veh_passenger">
        <route edges="712645080 -712645080 -62218145#0 825786383#0 825786397 752225467 459492912#0 459492912#1 825786400 459492917#0 825786410 153225678#0 153225678#1-AddedOnRampEdge 153225678#1 153225678#2 153225678#3 820340552#0 820340552#1 820340552#2 -27702347#8 -27702347#5 -27702347#3 -328942767#26 -328942767#16 -328942767#3 -328942767#1 693449409#8 693449409#10 156261446#0 156261446#2 156261446#11 -25804866#1"/>
    </vehicle>
    <vehicle depart="6.38" departLane="best" id="veh4" type="veh_passenger">
        <route edges="178173932#0 300803489#0 300803489#1 300803489#2 825786379 825786380 300803484 480596365 480596367#0 480596367#1 480596367#3 825786383#0 825786397 752225467 459492912#0 459492912#1 825786400 459492917#0 825786410 153225678#0 153225678#1-AddedOnRampEdge 153225678#1 153225678#2 153225678#3 820340552#0 820340552#1 820340552#2 -27702347#8 -27702347#5 -27702347#3 -328942767#26 -328942767#16 -328942767#3 -328942767#1 452179357#5 452179357#7 749981039#0 452045739 156261430 -156261430"/>
    </vehicle>
    <vehicle depart="7.98" departLane="best" id="veh5" type="veh_passenger">
        <route edges="-692683968 -62218145#0 825786383#0 825786397 752225467 786133405 825786398 752225466 156966529#0 156966536-AddedOnRampEdge 156966536 25046707#0-AddedOnRampEdge 25046707#0 25046707#0-AddedOffRampEdge 25046778 25044963#1-AddedOnRampEdge 25044963#1 156970488#0 156970488#0-AddedOffRampEdge 156966572 157373206#1-AddedOnRampEdge 157373206#1 198802017 198975441#9 198975441#10-AddedOnRampEdge 198975441#10 178872818#0 178872818#1 157373210#0-AddedOnRampEdge 157373210#0 -377279914#2 -377279914#1 -377279914#0 -377279917#2 -377279917#1 -630852002 30046784#1 30046784#2-AddedOnRampEdge 30046784#2 156970499 156970499-AddedOffRampEdge 25045362 25045362-AddedOffRampEdge 25046128"/>
    </vehicle>
    <vehicle depart="11.17" departLane="best" id="veh7" type="veh_passenger">
        <route edges="384633624#0 384633624#2 -156261361#1 153225678#2 153225678#3 820340552#0 820340552#1 820340552#2 459551209#0 459551209#3 482209831#0 482209831#2 820373195 820373196#0 820373198#0 825786415 825786416 481971011#0 481971011#1-AddedOnRampEdge 481971011#1 459492913#0 459492913#2 459492913#3 825786399 786133405 825786398 752225466 825786395#0 480596363 466838066#0 466838066#1 300803492#0 300803492#1 300803492#2 25505554#0 25505554#1"/>
    </vehicle>
    <vehicle depart="12.77" departLane="best" id="veh8" type="veh_passenger">
        <route edges="-693831973 146616743#1 146616747#0 -158065686#1 158065687#1 158065687#3 -145575467#1 -145575467#0 -145575469#6 -145575469#4 -145575469#3 -145575469#2 145573675#0 145573675#2 145573675#3 145573675#4 145573675#5 145573676 674859970#0 674859970#1 674859970#2 674859970#3 674859411 300803489#2 825786379 825786380 300803484"/>
    </vehicle>
    <vehicle depart="15.96" departLane="best" id="veh10" type="veh_passenger">
        <route edges="613460014#4 -613460014#4 -613460014#3 -613460014#2 153225687#2 153225687#4 153225687#5 153225687#6 153225687#8 153225687#9-AddedOnRampEdge 153225687#10 153225687#10-AddedOffRampEdge 482384844 482384850#1-AddedOnRampEdge 482384850#1 482384850#2 338595767 338595771#1 824116547 824116548 157059873 481971011#1-AddedOnRampEdge 481971011#1 459492913#0"/>
    </vehicle>
    <vehicle depart="19.15" departLane="best" id="veh12" type="veh_passenger">
        <route edges="824116556#0 157373201#0 157373201#0-AddedOffRampEdge 157373199 25047032#1 824116558 824116559#0 25053626 338595771#1 824116547 824116548 824116545 153225678#0 153225678#1-AddedOnRampEdge 153225678#1 153225678#2 153225678#3 820340552#0 820340552#1 820340552#2 459551209#0 459551209#3 482209830#0 300813736#0 300813736#2 300813736#3 300813736#4 -156261483#9 -156261483#7 -156261483#6 -156261483#5 -156261483#4 -156261483#3 61232378#1 156261504#4"/>
    </vehicle>
    <vehicle depart="20.75" departLane="best" id="veh13" type="veh_passenger">
        <route edges="613461635#0 613461635#1 170065517#2 170065517#3 170065517#4 820373194#0 482209831#0 482209831#2 820373195 820373196#0 820373198#0 825786415 825786416 481971011#0 481971011#1-AddedOnRampEdge 481971011#1 459492913#0 459492913#2 459492913#3 825786399 786133405 825786398 752225466 825786395#0 480596363"/>
    </vehicle>
    <vehicle depart="23.94" departLane="best" id="veh15" type="veh_passenger">
        <route edges="157373201#1 157373198 25047032#1 824116558 824116559#0 25053626 338595771#1 824116547 824116548 824116545 153225678#0 153225678#1-AddedOnRampEdge 153225678#1 153225678#2 153225678#3 820340552#0 820340552#1 820340552#2 -27702347#8 -27702347#5 -27702347#3 -328942767#26 -328942767#16 -328942767#3 -328942767#1 452179357#5 452179357#7 749981039#0 452045739 258200369#0"/>
    </vehicle>
    <vehicle depart="25.54" departLane="best" id="veh16" type="veh_passenger">
        <route edges="630160210#0 630160210#1 630160210#2 630160211#1 -145575469#7 -145575469#6 -145575469#4 -145575469#3 -145575469#2 145573675#0 145573675#2 145573675#3 145573675#4 145573675#5 145573676 674859970#0 674859970#1 674859970#2 674859970#3 674859411 300803489#2 825786379 825786380 300803484 480596365 480596367#0 480596367#1 480596367#3 825786383#0 825786397 752225467 459492912#0 459492912#1 825786400 459492917#0 825786410 153225678#0 153225678#1-AddedOnRampEdge 153225678#1 153225678#2 153225678#3 820340552#0 820340552#1 820340552#2 -27702347#8 -27702347#5 -27702347#3 -328942767#26 -328942767#16 -328942767#3 -328942767#1 452179357#5 452179357#7 749981039#0 452045739 258200369#0 258200369#1 156261417 -335977387 335977387"/>
    </vehicle>
    <vehicle depart="27.13" departLane="best" id="veh17" type="veh_passenger">
        <route edges="693449409#10 693449409#11 452179357#0 452179357#1 328942767#0 328942767#2 328942767#4 328942767#17 27702347#0 27702347#4 27702347#6 459551209#0 459551209#3 482209831#0 482209831#2 820373195 820373196#0 820373198#0 825786415 825786416 481971011#0 481971011#1-AddedOnRampEdge 481971011#1 459492913#0 459492913#2 459492913#3 825786399 786133405 825786398 752225466 825786395#0 480596363 466838066#0 466838066#1 300803492#0 300803492#1 300803492#2 25505554#0 25505554#1 25505554#2 674861725#0 674861725#1 674861725#2 25505561#7 -41574012#4 -41574012#3 -41574012#2 -53207970#5 -53207970#3 -53207970#2 -153714072#2 -153714072#1 295210254"/>
    </vehicle>
    <vehicle depart="28.73" departLane="best" id="veh18" type="veh_passenger">
        <route edges="459492916#0 459492916#0-AddedOffRampEdge 824116543 824116547 824116548 824116545 153225678#0 153225678#1-AddedOnRampEdge 153225678#1 153225678#2 153225678#3 820340552#0 820340552#1 820340552#2 -27702347#8 -27702347#5 -27702347#3 -328942767#26 -328942767#16 -328942767#3 -328942767#1 693449409#8 693449409#10 156261446#0 156261446#2 25048001#0 25048001#2 156357426 -156357426"/>
    </vehicle>
    <vehicle depart="31.92" departLane="best" id="veh20" type="veh_passenger">
        <route edges="-25505561#14 25505561#14 25505561#15 -464252889#1 -464252889#0 -708155016#8 -708155016#6 756119203 25047032#1 824116558 824116559#0 25053626 157063985#0 552779154#4 -552779154#3 707581804 -707581804"/>
    </vehicle>
    <vehicle depart="33.52" departLane="best" id="veh21" type="veh_passenger">
        <route edges="377279918#0 377279918#1 -377279917#3 -377279917#2 -377279917#1 -630852002 30046784#1 30046784#2-AddedOnRampEdge 30046784#2 156970499 156970499-AddedOffRampEdge"/>
    </vehicle>
    <vehicle depart="35.11" departLane="best" id="veh22" type="veh_passenger">
        <route edges="156970499 156970499-AddedOffRampEdge 25045362 25045362-AddedOffRampEdge 210294522 25046556#1-AddedOnRampEdge 25046556#1 25046556#1-AddedOffRampEdge 156966514 156966563#1-AddedOnRampEdge 156966563#1 300803492#1 300803492#2 300803492#4 300803492#6 154773997#0 154773997#5 154773997#9 154773997#12 655339138 -655339138"/>
    </vehicle>
    <vehicle depart="36.71" departLane="best" id="veh23" type="veh_passenger">
        <route edges="145575049 608350817#4 158010317 158065687#1 158065687#3 -145575467#1 -145575467#0 -145575469#6 -145575469#4 -145575469#3 -145575469#2 145573675#0 145573675#2 145573675#3 145573675#4 145573675#5 145573676 674859970#0 674859970#1 674859970#2 674859970#3 674859411 300803489#2 825786379 825786380 300803484 480596365 480596367#0 480596367#1 480596367#3 825786383#0 825786397 752225467 459492912#0 459492912#1 825786400 459492917#0 825786410 153225678#0 153225678#1-AddedOnRampEdge 153225678#1 153225678#2 153225678#3 820340552#0 820340552#1 820340552#2 459551209#0 459551209#3 482209830#0 300813736#0 300813736#2 300813736#3 300813736#4 820345539#3 820345543"/>
    </vehicle>
    <vehicle depart="39.90" departLane="best" id="veh25" type="veh_passenger">
        <route edges="-613455563#1 552779154#2 552779154#3 -552779154#4 157063979 824116551#0 25047974#0 25047974#1 25047974#2 459492913#0 459492913#2 459492913#3 825786399 786133405 825786398 752225466 825786395#0 480596363"/>
    </vehicle>
    <vehicle depart="41.50" departLane="best" id="veh26" type="veh_passenger">
        <route edges="-595984943#1 595984943#0 482209831#2 820373195 820373196#0 820373198#0 825786415 157059855 824116549#0 824116550#0 824116552#0 824116553 25053633#1 824116557 gneE27 824116556#0 157373201#0 157373201#0-AddedOffRampEdge 157373201#1 758274454 157373203#1 157373203#2 154579460#1 154579460#2 154579460#2-AddedOffRampEdge 157373208#0 154579460#6 157373206#0 157373206#1-AddedOnRampEdge 157373206#1 157373206#2 157373206#3 157373206#4 157373206#5 157373206#6 157373206#7-AddedOnRampEdge 157373206#7 157373206#10 157373206#10-AddedOffRampEdge 157373206#12"/>
    </vehicle>
    <vehicle depart="44.69" departLane="best" id="veh28" type="veh_passenger">
        <route edges="25715414#0 25715414#1 693449409#10 693449409#11 452179357#0 452179357#1 452179357#5 452179357#7 749981039#0 452045739 258200370 454164536 454164535#0 453670278"/>
    </vehicle>
    <vehicle depart="47.88" departLane="best" id="veh30" type="veh_passenger">
        <route edges="-697668091 697668091 25053188#1 825786433#6 820373193 -170065517#8 -27702346#2 -693832668#3 -693832668#2 -693832668#0 -693832669#0 -156261434#12 -156261434#11 -156261434#9 -156261434#7 -156261434#0 452179357#0 452179357#1 452179357#5 452179357#7 749981039#0 452045739 749981040#0 156261436#0 -156261436#3"/>
    </vehicle>
    <vehicle depart="51.07" departLane="best" id="veh32" type="veh_passenger">
        <route edges="-680866644 76510933#4 76510933#5 76510933#6 156261434#12 156261434#14 693832669#1 693832668#1 693832668#3 453962283#0 300813736#0 820373194#0"/>
    </vehicle>
    <vehicle depart="52.67" departLane="best" id="veh33" type="veh_passenger">
        <route edges="707581805 707581807 -707581804 552779154#3 -552779154#4 157063979 824116551#0 338595771#1 824116547 824116548 824116545 153225678#0 153225678#1-AddedOnRampEdge 153225678#1 153225678#2 153225678#3 820340552#0 820340552#1 820340552#2 -27702347#8 -27702347#5 156261422#0 156261422#2 156261422#3 156261422#4 156261422#5 156261422#6 156261422#9 156261422#13 156261366#0 156261366#1"/>
    </vehicle>
    <vehicle depart="54.26" departLane="best" id="veh34" type="veh_passenger">
        <route edges="384643725#0 353583731 384643705#0 384643705#1 384643705#3 384643705#5 820340552#0 820340552#1 820340552#2 459551209#0 459551209#3 482209833#0 482209833#1 292571830 292571830-AddedOffRampEdge 321845932#1 292576585#0 292576585#1-AddedOnRampEdge 292576585#1 292576585#1-AddedOffRampEdge 292576585#3 292576585#4 211040210#0 211040210#1-AddedOnRampEdge 211040210#1 210884217#3-AddedOnRampEdge 210884217#3 210884217#3-AddedOffRampEdge 25044963#0 25044963#1-AddedOnRampEdge 25044963#1 156970488#0 156970488#0-AddedOffRampEdge 156966572 157373206#1-AddedOnRampEdge 157373206#1 198802017 198975441#9 198975441#10-AddedOnRampEdge 198975441#10 178872818#0 178872818#1 157373210#0-AddedOnRampEdge 157373210#0 157373210#1 157373210#2 157373210#2-AddedOffRampEdge"/>
    </vehicle>
    <vehicle depart="55.86" departLane="best" id="veh35" type="veh_passenger">
        <route edges="145573675#2 145573675#3 145573675#4 145573675#5 145573676 674859970#0 674859970#1 674859970#2 674859970#3 674859411 300803489#2 825786379 825786380 300803484 480596365 480596367#0 480596367#1 480596367#3 825786383#0 825786397 752225467 459492912#0 459492912#1 825786400 459492916#0 459492916#0-AddedOffRampEdge 824116544 157063985#0 552779154#4 -454195086#2 -351850682#1 -761650946#1"/>
    </vehicle>
    <vehicle depart="57.46" departLane="best" id="veh36" type="veh_passenger">
        <route edges="25828822 25505534#1 -154773997#11 25505561#0 25505561#4 25505561#5 25505561#7 25505561#8 25505561#9 25505561#12 25505561#14 25505561#15 -464252889#1 -464252889#0 -708155016#8 -708155016#6 756119203 25047032#1 824116558 824116559#0 25053626 25047974#0 25047974#1 -674869532 618739072#1 809900341 -809900341"/>
    </vehicle>
    <vehicle depart="59.05" departLane="best" id="veh37" type="veh_passenger">
        <route edges="30046784#1 30046784#2-AddedOnRampEdge 30046784#2 156970499 156970499-AddedOffRampEdge 25044880 25044852#0-AddedOnRampEdge 25044852#0 25044852#0-AddedOffRampEdge 211040206 211040206-AddedOffRampEdge 211040186#1 292576585#4 211040210#0 211040210#1-AddedOnRampEdge 211040210#1 210884217#3-AddedOnRampEdge 210884217#3 210884217#3-AddedOffRampEdge 25044963#0 25044963#1-AddedOnRampEdge 25044963#1 156970488#0 156970488#0-AddedOffRampEdge 156966572 157373206#1-AddedOnRampEdge 157373206#1 157373206#2 157373206#3 157373206#4 157373206#5 157373206#6 157373206#7-AddedOnRampEdge 157373206#7 157373206#10 157373206#10-AddedOffRampEdge 157373206#12 154774063 198975492#0 753173500"/>
    </vehicle>
    <vehicle depart="60.65" departLane="best" id="veh38" type="veh_passenger">
        <route edges="157373210#1 157373210#2 157373210#2-AddedOffRampEdge 157373209#0 157373209#1 708155016#6 708155016#7 708155016#9 156966531 156966567 156966563#0 156966563#1-AddedOnRampEdge 156966563#1 300803492#1 300803492#2 25505554#0 25505554#1 -690642682#4 -690642682#3"/>
    </vehicle>
    <vehicle depart="62.24" departLane="best" id="veh39" type="veh_passenger">
        <route edges="gneE27 824116556#0 157373201#0 157373201#0-AddedOffRampEdge 157373199 25047032#1 824116558 824116559#0 25053626 185563494 824116554 824116555#0 824116555#0-AddedOffRampEdge 824116555#3 292576585#0 292576585#1-AddedOnRampEdge 292576585#1 292576585#1-AddedOffRampEdge 292576585#3 292576585#4 211040210#0 211040210#1-AddedOnRampEdge 211040210#1 210884217#3-AddedOnRampEdge 210884217#3 210884217#3-AddedOffRampEdge 25046556#0 25046556#1-AddedOnRampEdge"/>
    </vehicle>
    <vehicle depart="63.84" departLane="best" id="veh40" type="veh_passenger">
        <route edges="-295213513#1 295213513#1 295213513#2 786133405 825786398 752225466 156966529#0 156966536-AddedOnRampEdge 156966536 25046707#0-AddedOnRampEdge 25046707#0 25046707#0-AddedOffRampEdge 25046778 25044963#1-AddedOnRampEdge 25044963#1 156970488#0 156970488#0-AddedOffRampEdge 156966572 157373206#1-AddedOnRampEdge 157373206#1 157373206#2 157373206#3 157373206#4 157373206#5 157373206#6 157373206#7-AddedOnRampEdge 157373206#7 157373206#10 157373206#10-AddedOffRampEdge 157373206#12 154774063 198975492#0 156465658#0 156465658#1 156465598 -156465598"/>
    </vehicle>
    <vehicle depart="65.44" departLane="best" id="veh41" type="veh_passenger">
        <route edges="-377279917#3 377279914#0 377279913#1 -154579509#1 157373210#2 157373210#2-AddedOffRampEdge 157373209#0 157373209#1 756119203 25047032#1 824116558 824116559#0 25053626 338595771#1 824116547 824116548 824116545 153225678#0 153225678#1-AddedOnRampEdge 153225678#1 156261361#0 -384633624#2 -384633624#1 -415179424#0 353583726#2"/>
    </vehicle>
    <vehicle depart="67.03" departLane="best" id="veh42" type="veh_passenger">
        <route edges="595984942 820373195 820373196#0 820373198#0 825786415 157059855 824116549#0 824116550#0 824116552#0 824116553 25053633#1 824116557 gneE27 824116556#0 157373201#0 157373201#0-AddedOffRampEdge 157373201#1 758274454 157373203#1 157373203#2 154579460#1 154579460#2 154579460#2-AddedOffRampEdge 157373208#0 154579460#6 157373206#0 157373206#1-AddedOnRampEdge 157373206#1 157373206#2 157373206#3 157373206#4 157373206#5 157373206#6 157373206#7-AddedOnRampEdge 157373206#7 157373206#10 157373206#10-AddedOffRampEdge 198975516 198975441#1 198975441#6 198975441#6-AddedOffRampEdge 178872812#0 178872812#0-AddedOffRampEdge"/>
    </vehicle>
    <vehicle depart="68.63" departLane="best" id="veh43" type="veh_passenger">
        <route edges="-211040189#2 -211040189#0 -211040223#0 -55814053#4 -55814053#1 55814053#0 45033613#0 45033613#1 292576585#0 292576585#1-AddedOnRampEdge 292576585#1 292576585#1-AddedOffRampEdge 292576585#3 292576585#4 211040210#0 211040210#1-AddedOnRampEdge 211040210#1 210884217#3-AddedOnRampEdge 210884217#3 210884217#3-AddedOffRampEdge 25044963#0 25044963#1-AddedOnRampEdge 25044963#1 156970488#0 156970488#0-AddedOffRampEdge 156966572 157373206#1-AddedOnRampEdge 157373206#1 157373206#2"/>
    </vehicle>
    <vehicle depart="70.22" departLane="best" id="veh44" type="veh_passenger">
        <route edges="9168676 824116549#0 824116550#0 185563494 824116554 824116555#0 824116555#0-AddedOffRampEdge 482384843 482384842#1-AddedOnRampEdge 482384842#2-AddedOnRampNode 482384842#2 321845933#2 321845933#1 321845933#3 482209830#0 -453962283#3 -693832668#3 -693832668#2 -693832668#0 -693832669#0 -156261434#12 -156261434#11 -156261434#9 -156261434#7 -156261434#0 452179357#0 452179357#1 693449409#8 693449409#10 156261446#0 156261446#2 25048001#0 25048001#2 25048001#3"/>
    </vehicle>
    <vehicle depart="71.82" departLane="best" id="veh45" type="veh_passenger">
        <route edges="825786397 752225467 459492912#0 459492912#1 825786400 459492917#0 825786410 153225678#0 153225678#1-AddedOnRampEdge 153225678#1 153225678#2 153225678#3 820340552#0 820340552#1 820340552#2 -27702347#8 -27702347#5 -27702347#3 -328942767#26 -328942767#16 -328942767#3 -328942767#1 452179357#5 452179357#7 749981039#0 452045739 258200370 693832198"/>
    </vehicle>
    <vehicle depart="73.41" departLane="best" id="veh46" type="veh_passenger">
        <route edges="-153714072#1 153714072#0 153714072#2 53207970#2 53207970#3 53207970#5 41574012#2 41574012#3 41574012#4 25505561#8 25505561#9 25505561#12 25505561#14 25505561#15 -464252889#1 -464252889#0 -708155016#8 -708155016#6 756119203 25047032#1 824116558 824116559#0 25053626 25047974#0 25047974#1 25047974#2 459492913#0 459492913#2 459492913#3 825786399 786133405 825786398 752225466 825786395#0 480596363 466838066#0"/>
    </vehicle>
    <vehicle depart="75.01" departLane="best" id="veh47" type="veh_passenger">
        <route edges="452179357#1 328942767#0 328942767#2 328942767#4 328942767#17 156261350#4 -294808467#3 -294808467#2 -294808467#1 -294808467#0 156261499 -156261414#8 -156261414#7 -156261414#6 -156261414#4 766072319#1 453680009#0 453680009#0-AddedOffRampEdge 25053655#0 25053655#0-AddedOffRampEdge"/>
    </vehicle>
    <vehicle depart="76.61" departLane="best" id="veh48" type="veh_passenger">
        <route edges="145575049 608350817#4 158010317 158065687#1 158065687#3 -145575467#1 -145575467#0 -145575469#6 -145575469#4 -145575469#3 -145575469#2 145573675#0 145573675#2 145573675#3 145573675#4 145573675#5 145573676 674859970#0 674859970#1 674859970#2 674859970#3 674859411 300803489#2 825786379 156966562 752186031 480596356 480596358#0 25046665 480596362#0 156966536-AddedOnRampEdge 156966536 25046707#0-AddedOnRampEdge 25046707#0 25046707#0-AddedOffRampEdge 25046778 25044963#1-AddedOnRampEdge 25044963#1 156970488#0 156970488#0-AddedOffRampEdge 156966572 157373206#1-AddedOnRampEdge 157373206#1 157373206#2 157373206#3 707855492#0 377292928#0 377292928#1 377292928#2 377292928#3 377292926#3"/>
    </vehicle>
    <vehicle depart="78.20" departLane="best" id="veh49" type="veh_passenger">
        <route edges="-377279920#1 -377279920#0 53207970#3 53207970#5 -41574012#1 41574019#0 41574019#4 -154579509#6 -154579509#5 377279918#0 377279918#1 -377279917#3 -377279917#2 -377279917#1 -630852002 30046784#1 30046784#2-AddedOnRampEdge 30046784#2 156970499 156970499-AddedOffRampEdge 25045362 25045362-AddedOffRampEdge 25046128 185059748-AddedOnRampEdge 185059748 185059750-AddedOnRampEdge 185059750"/>
    </vehicle>
    <vehicle depart="79.80" departLane="best" id="veh50" type="veh_passenger">
        <route edges="198802017 198975441#9 198975441#10-AddedOnRampEdge 198975441#10 178872818#0 178872818#1 157373210#0-AddedOnRampEdge 157373210#0 157373210#1 157373210#2 157373210#2-AddedOffRampEdge 157373209#0 157373209#1 756119203 25047032#1 824116558 824116559#0 25053626 338595771#1 824116547 824116548"/>
    </vehicle>
    <vehicle depart="81.39" departLane="best" id="veh51" type="veh_passenger">
        <route edges="707581804 -707581804 552779154#3 -552779154#4 157063979 824116551#0 25047974#0 809900342#0 809900342#1 -809900342#1"/>
    </vehicle>
    <vehicle depart="82.99" departLane="best" id="veh52" type="veh_passenger">
        <route edges="230833233 -230833233 -156261441#3 693449409#2 693449409#4 693449409#5 693449409#8 693449409#10 693449409#11 156261434#0 156261434#1 156261434#8 156261434#10 156261434#12 156261434#14 693832669#1 76510937#0 76510937#1 170065517#0 -613461635#1 -613461635#0 613461634 -613461634"/>
    </vehicle>
    <vehicle depart="84.59" departLane="best" id="veh53" type="veh_passenger">
        <route edges="76510939#0 -76510939#1 710591527#11 710591527#12 710591527#13 710591527#14 452179357#0 452179357#1 328942767#0 328942767#2 328942767#4 328942767#17 27702347#0 27702347#4 27702347#6 459551209#0 459551209#3 482209833#0 482209833#1 292571830 292571830-AddedOffRampEdge 321845932#1 292576585#0 292576585#1-AddedOnRampEdge 292576585#1 292576585#1-AddedOffRampEdge 292576585#3 292576585#4 211040210#0 211040210#1-AddedOnRampEdge 211040210#1 210884217#3-AddedOnRampEdge 210884217#3 210884217#3-AddedOffRampEdge 25044963#0 25044963#1-AddedOnRampEdge 25044963#1 156970488#0 156970488#0-AddedOffRampEdge 156966572 157373206#1-AddedOnRampEdge 157373206#1 157373206#2 157373206#3 707855492#0 707855492#1 707855492#2"/>
    </vehicle>
    <vehicle depart="86.18" departLane="best" id="veh54" type="veh_passenger">
        <route edges="154579450#2 198975441#0 198975441#1 198975441#6 198975441#6-AddedOffRampEdge 198975441#8 198975441#9 198975441#10-AddedOnRampEdge 198975441#10 178872818#0 178872818#1 157373210#0-AddedOnRampEdge 157373210#0 157373210#1 157373210#2 157373210#2-AddedOffRampEdge 157373209#0 157373209#1 -708155016#5 157373203#1 157373203#2 154579460#1 154579460#2 154579460#2-AddedOffRampEdge 157373208#0 154579460#6 157373206#0 157373206#1-AddedOnRampEdge 157373206#1 157373206#2 157373206#3 157373206#4 157373206#5 377292925 377292919#3 377292919#4"/>
    </vehicle>
    <vehicle depart="87.78" departLane="best" id="veh55" type="veh_passenger">
        <route edges="300813736#3 825786433#3 825786433#6 820373193 820373194#0 482209831#0 482209831#2 820373195 820373196#0 820373198#0 825786415 825786416 481971011#0 481971011#1-AddedOnRampEdge 481971011#1 459492913#0 459492913#2 459492913#3 825786399 786133405 825786398 752225466 825786395#0 480596363 466838066#0 466838066#1 300803492#0 300803492#1 300803492#2 25505554#0 25505554#1 25505554#2 674861725#0 674861725#1 674861725#2 25505561#7 25505561#8 25505561#9 -465431247"/>
    </vehicle>
    <vehicle depart="89.37" departLane="best" id="veh56" type="veh_passenger">
        <route edges="482209833#0 482209833#1 25053183#1 820373196#0 820373198#0 825786415 825786416 481971013#0 481971013#1-AddedOnRampEdge 481971013#1 481971013#2-AddedOnRampEdge 481971013#2 25292712#0-AddedOnRampEdge 25292712#0"/>
    </vehicle>
    <vehicle depart="90.97" departLane="best" id="veh57" type="veh_passenger">
        <route edges="53207968 -694847963 154579511#2 154579511#3 154579511#5 -708155016#6 756119203 25047032#1 824116558 824116559#0 25053626 185563494 824116554 824116555#0 824116555#0-AddedOffRampEdge 482384843 482384842#1-AddedOnRampEdge 482384842#2-AddedOnRampNode 482384842#2 25053183#1"/>
    </vehicle>
    <vehicle depart="92.57" departLane="best" id="veh58" type="veh_passenger">
        <route edges="-145573669 145573669 145573675#3 145573675#4 145573675#5 145573676 674859970#0 674859970#1 674859970#2 674859970#3 674859411 300803489#2 825786379 825786380 300803484 480596365 480596367#0 480596367#1 480596367#3 825786383#0 825786397 752225467 459492912#0 459492912#1 825786400 459492917#0 825786410 153225678#0 153225678#1-AddedOnRampEdge 153225678#1 153225678#2 153225678#3 820340552#0 820340552#1 820340552#2 459551209#0 459551209#3 482209830#0 -453962283#3 -693832668#3 -693832668#2 -693832668#0 -693832669#0 -156261434#12 -156261434#11 -156261434#9 156261434#8"/>
    </vehicle>
    <vehicle depart="95.76" departLane="best" id="veh60" type="veh_passenger">
        <route edges="154579511#2 154579511#3 154579511#5 -708155016#6 756119203 25047032#1 824116558 824116559#0 25053626 338595771#1 824116547 824116548 824116545 153225678#0 153225678#1-AddedOnRampEdge 153225678#1 153225678#2 153225678#3 820340552#0 820340552#1 820340552#2 459551209#0 459551209#3 482209830#0 300813736#0 300813736#2 300813736#3 300813736#4 -156261483#9 -156261483#7 -156261483#6 -156261483#5 -156261483#4 192166622#1 -170066045#2"/>
    </vehicle>
    <vehicle depart="97.35" departLane="best" id="veh61" type="veh_passenger">
        <route edges="707855492#1 -707855492#1 -707855492#0 157373206#4 157373206#5 157373206#6 157373206#7-AddedOnRampEdge 157373206#7 157373206#10 157373206#10-AddedOffRampEdge 198975516 198975441#1 198975441#6 198975441#6-AddedOffRampEdge 198975441#8 198975441#9 198975441#10-AddedOnRampEdge 198975441#10 178872818#0 178872818#1 157373210#0-AddedOnRampEdge 157373210#0 157373210#1 157373210#2 157373210#2-AddedOffRampEdge 157373209#0 157373209#1 756119203 25047032#1 824116558 824116559#0 25053626 185563494 824116554 824116555#0 824116555#0-AddedOffRampEdge 482384843 482384842#1-AddedOnRampEdge 482384842#2-AddedOnRampNode 482384842#2 25053183#1 820373196#0 820373198#0"/>
    </vehicle>
    <vehicle depart="98.95" departLane="best" id="veh62" type="veh_passenger">
        <route edges="-26529969 454157222#1 -454157222#1 26529969 454157223 454157224 -454164533 -454164536 -258200370 749981040#0 749981040#2 751471422#0 693449409#0 156261441#0 230833233"/>
    </vehicle>
    <vehicle depart="100.55" departLane="best" id="veh63" type="veh_passenger">
        <route edges="-25026382#1 -25026382#0 -693832667 -156261366#3 -156261366#2 -156261366#1 -156261366#0 -156261422#13 -156261422#12 -156261422#8 -156261422#5 -156261422#4 -156261422#3 -156261422#2 -156261422#1 27702347#4 27702347#6 459551209#0 459551209#3 482209833#0 482209833#1 292571830 292571830-AddedOffRampEdge 482384845 482384848#1"/>
    </vehicle>
    <vehicle depart="102.14" departLane="best" id="veh64" type="veh_passenger">
        <route edges="482384842#1-AddedOnRampEdge 482384842#2-AddedOnRampNode 482384842#2 321845933#2 321845933#1 321845933#3 482209830#0 -453962283#3 156261350#0 156261350#4 -294808467#3 -294808467#2 609934253 -384643717#0"/>
    </vehicle>
    <vehicle depart="103.74" departLane="best" id="veh65" type="veh_passenger">
        <route edges="210884217#1-AddedOffRampEdge 211040198 211040198-AddedOffRampEdge 211040207#1 153225687#6 153225687#8 153225687#9-AddedOnRampEdge 153225687#10 153225687#10-AddedOffRampEdge 153225687#13 482384842#0 482384842#1-AddedOnRampEdge 482384842#2-AddedOnRampNode 482384842#2 321845933#2 321845933#1 321845933#3 482209830#0 -453962283#3 -693832668#3 -693832668#2 -693832668#0 -693832669#0 -156261434#12 -156261434#11 -156261434#9 -156261434#7 -156261434#0 452179357#0 452179357#1 693449409#8 693449409#10 156261446#0 25715414#0"/>
    </vehicle>