<?xml version="1.0" encoding="UTF-8"?>

<!-- generated on 12/31/20 13:19:07 by Eclipse SUMO netedit Version 1.6.0
<configuration xmlns:xsi="http://www.w3.org/2001/XMLSchema-instance" xsi:noNamespaceSchemaLocation="http://sumo.dlr.de/xsd/netconvertConfiguration.xsd">

    <input>
        <sumo-net-file value="C:\2020-12-29-20-31-34(KasemRat-SUMO)_Using_cutRoutes_createGridlockMasuk\osm.net.xml"/>
    </input>

    <output>
        <output-file value="C:\2020-12-29-20-31-34(KasemRat-SUMO)_Using_cutRoutes_createGridlockMasuk\osm.net.xml"/>
        <output.street-names value="true"/>
    </output>

    <processing>
        <geometry.min-radius.fix.railways value="false"/>
        <geometry.max-grade.fix value="false"/>
        <offset.disable-normalization value="true"/>
        <lefthand value="true"/>
    </processing>

    <junctions>
        <no-turnarounds value="true"/>
        <junctions.corner-detail value="5"/>
        <junctions.limit-turn-speed value="5.5"/>
        <rectangular-lane-cut value="false"/>
    </junctions>

    <pedestrian>
        <walkingareas value="false"/>
    </pedestrian>

    <report>
        <aggregate-warnings value="5"/>
    </report>

</configuration>
-->

<net version="1.6" junctionCornerDetail="5" lefthand="true" limitTurnSpeed="5.50" xmlns:xsi="http://www.w3.org/2001/XMLSchema-instance" xsi:noNamespaceSchemaLocation="http://sumo.dlr.de/xsd/net_file.xsd">

    <location netOffset="-665445.43,-1514381.00" convBoundary="0.00,0.00,6550.42,4391.05" origBoundary="100.517160,13.693759,100.590478,13.813737" projParameter="+proj=utm +zone=47 +ellps=WGS84 +datum=WGS84 +units=m +no_defs"/>

    <type id="highway.bridleway" priority="1" numLanes="1" speed="2.78" allow="pedestrian" oneway="1" width="2.00"/>
    <type id="highway.bus_guideway" priority="1" numLanes="1" speed="27.78" allow="bus" oneway="1"/>
    <type id="highway.cycleway" priority="1" numLanes="1" speed="8.33" allow="bicycle" oneway="0" width="1.00"/>
    <type id="highway.footway" priority="1" numLanes="1" speed="2.78" allow="pedestrian" oneway="1" width="2.00"/>
    <type id="highway.ford" priority="1" numLanes="1" speed="2.78" allow="army" oneway="0"/>
    <type id="highway.living_street" priority="2" numLanes="1" speed="2.78" disallow="tram rail_urban rail rail_electric rail_fast ship" oneway="0"/>
    <type id="highway.motorway" priority="14" numLanes="2" speed="39.44" allow="private emergency authority army vip passenger hov taxi bus coach delivery truck trailer motorcycle evehicle custom1 custom2" oneway="1"/>
    <type id="highway.motorway_link" priority="9" numLanes="1" speed="22.22" allow="private emergency authority army vip passenger hov taxi bus coach delivery truck trailer motorcycle evehicle custom1 custom2" oneway="1"/>
    <type id="highway.path" priority="1" numLanes="1" speed="2.78" allow="pedestrian bicycle" oneway="1" width="2.00"/>
    <type id="highway.pedestrian" priority="1" numLanes="1" speed="2.78" allow="pedestrian" oneway="1" width="2.00"/>
    <type id="highway.primary" priority="12" numLanes="2" speed="27.78" disallow="tram rail_urban rail rail_electric rail_fast ship" oneway="0"/>
    <type id="highway.primary_link" priority="7" numLanes="1" speed="22.22" disallow="tram rail_urban rail rail_electric rail_fast ship" oneway="0"/>
    <type id="highway.raceway" priority="15" numLanes="2" speed="83.33" allow="vip" oneway="0"/>
    <type id="highway.residential" priority="3" numLanes="1" speed="13.89" disallow="tram rail_urban rail rail_electric rail_fast ship" oneway="0"/>
    <type id="highway.secondary" priority="11" numLanes="1" speed="27.78" disallow="tram rail_urban rail rail_electric rail_fast ship" oneway="0"/>
    <type id="highway.secondary_link" priority="6" numLanes="1" speed="22.22" disallow="tram rail_urban rail rail_electric rail_fast ship" oneway="0"/>
    <type id="highway.service" priority="1" numLanes="1" speed="5.56" allow="pedestrian delivery bicycle" oneway="0"/>
    <type id="highway.stairs" priority="1" numLanes="1" speed="1.39" allow="pedestrian" oneway="1" width="2.00"/>
    <type id="highway.step" priority="1" numLanes="1" speed="1.39" allow="pedestrian" oneway="1" width="2.00"/>
    <type id="highway.steps" priority="1" numLanes="1" speed="1.39" allow="pedestrian" oneway="1" width="2.00"/>
    <type id="highway.tertiary" priority="10" numLanes="1" speed="22.22" disallow="tram rail_urban rail rail_electric rail_fast ship" oneway="0"/>
    <type id="highway.tertiary_link" priority="5" numLanes="1" speed="22.22" disallow="tram rail_urban rail rail_electric rail_fast ship" oneway="0"/>
    <type id="highway.track" priority="1" numLanes="1" speed="5.56" disallow="tram rail_urban rail rail_electric rail_fast ship" oneway="0"/>
    <type id="highway.trunk" priority="13" numLanes="2" speed="27.78" disallow="pedestrian bicycle tram rail_urban rail rail_electric rail_fast ship" oneway="0"/>
    <type id="highway.trunk_link" priority="8" numLanes="1" speed="22.22" disallow="pedestrian bicycle tram rail_urban rail rail_electric rail_fast ship" oneway="0"/>
    <type id="highway.unclassified" priority="4" numLanes="1" speed="13.89" disallow="tram rail_urban rail rail_electric rail_fast ship" oneway="0"/>
    <type id="highway.unsurfaced" priority="1" numLanes="1" speed="8.33" disallow="tram rail_urban rail rail_electric rail_fast ship" oneway="0"/>
    <type id="railway.highspeed" priority="21" numLanes="1" speed="69.44" allow="rail_fast" oneway="1"/>
    <type id="railway.light_rail" priority="19" numLanes="1" speed="27.78" allow="rail_urban" oneway="1"/>
    <type id="railway.preserved" priority="16" numLanes="1" speed="27.78" allow="rail" oneway="1"/>
    <type id="railway.rail" priority="20" numLanes="1" speed="44.44" allow="rail" oneway="1"/>
    <type id="railway.subway" priority="18" numLanes="1" speed="27.78" allow="rail_urban" oneway="1"/>
    <type id="railway.tram" priority="17" numLanes="1" speed="13.89" allow="tram" oneway="1"/>

    <edge id=":153225678#1-AddedOnRampNode_0" function="internal">
        <lane id=":153225678#1-AddedOnRampNode_0_0" index="0" disallow="tram rail_urban rail rail_electric rail_fast ship" speed="27.78" length="8.00" shape="3263.15,2906.92 3270.54,2903.85"/>
        <lane id=":153225678#1-AddedOnRampNode_0_1" index="1" disallow="tram rail_urban rail rail_electric rail_fast ship" speed="27.78" length="8.00" shape="3261.93,2903.96 3269.32,2900.90"/>
        <lane id=":153225678#1-AddedOnRampNode_0_2" index="2" disallow="tram rail_urban rail rail_electric rail_fast ship" speed="27.78" length="8.00" shape="3260.70,2901.00 3268.09,2897.94"/>
        <lane id=":153225678#1-AddedOnRampNode_0_3" index="3" disallow="tram rail_urban rail rail_electric rail_fast ship" speed="27.78" length="8.00" shape="3259.48,2898.05 3266.87,2894.98"/>
    </edge>
    <edge id=":153225687#2-AddedOffRampNode_0" function="internal">
        <lane id=":153225687#2-AddedOffRampNode_0_0" index="0" disallow="tram rail_urban rail rail_electric rail_fast ship" speed="27.78" length="8.41" shape="3745.01,2211.14 3745.55,2213.59 3745.16,2215.44 3744.76,2217.29 3745.27,2219.76"/>
        <lane id=":153225687#2-AddedOffRampNode_0_1" index="1" disallow="tram rail_urban rail rail_electric rail_fast ship" speed="27.78" length="8.41" shape="3745.01,2211.14 3748.20,2218.47"/>
    </edge>
    <edge id=":156966536-AddedOnRampNode_0" function="internal">
        <lane id=":156966536-AddedOnRampNode_0_0" index="0" allow="private emergency authority army vip passenger hov taxi bus coach delivery truck trailer motorcycle evehicle custom1 custom2" speed="22.22" length="8.00" shape="2475.50,3091.72 2476.38,3083.77"/>
    </edge>
    <edge id=":156970499-AddedOffRampNode_0" function="internal">
        <lane id=":156970499-AddedOffRampNode_0_0" index="0" allow="private emergency authority army vip passenger hov taxi bus coach delivery truck trailer motorcycle evehicle custom1 custom2" speed="39.44" length="5.69" shape="2567.73,2171.54 2566.11,2179.22"/>
        <lane id=":156970499-AddedOffRampNode_0_1" index="1" allow="private emergency authority army vip passenger hov taxi bus coach delivery truck trailer motorcycle evehicle custom1 custom2" speed="39.44" length="5.69" shape="2567.73,2171.54 2568.37,2172.97 2568.09,2174.29 2567.81,2175.61 2568.46,2177.04"/>
        <lane id=":156970499-AddedOffRampNode_0_2" index="2" allow="private emergency authority army vip passenger hov taxi bus coach delivery truck trailer motorcycle evehicle custom1 custom2" speed="39.44" length="5.69" shape="2567.73,2171.54 2570.80,2174.86"/>
        <lane id=":156970499-AddedOffRampNode_0_3" index="3" allow="private emergency authority army vip passenger hov taxi bus coach delivery truck trailer motorcycle evehicle custom1 custom2" speed="39.44" length="5.69" shape="2570.06,2169.36 2573.15,2172.69"/>
    </edge>
    <edge id=":157373201#0-AddedOffRampNode_0" function="internal">
        <lane id=":157373201#0-AddedOffRampNode_0_0" index="0" disallow="tram rail_urban rail rail_electric rail_fast ship" speed="27.78" length="8.27" shape="2729.74,2289.17 2728.36,2287.06 2728.07,2285.20 2727.77,2283.33 2726.39,2281.23"/>
        <lane id=":157373201#0-AddedOffRampNode_0_1" index="1" disallow="tram rail_urban rail rail_electric rail_fast ship" speed="27.78" length="8.27" shape="2729.74,2289.17 2724.12,2283.48"/>
        <lane id=":157373201#0-AddedOffRampNode_0_2" index="2" disallow="tram rail_urban rail rail_electric rail_fast ship" speed="27.78" length="8.27" shape="2727.47,2291.42 2721.84,2285.73"/>
    </edge>
    <edge id=":1589652002_0" function="internal">
        <lane id=":1589652002_0_0" index="0" disallow="tram rail_urban rail rail_electric rail_fast ship" speed="3.65" length="4.67" shape="2351.28,3339.38 2352.08,3338.18 2352.14,3337.28 2351.46,3336.70 2350.04,3336.42"/>
    </edge>
    <edge id=":1589652005_0" function="internal">
        <lane id=":1589652005_0_0" index="0" disallow="tram rail_urban rail rail_electric rail_fast ship" speed="3.65" length="4.67" shape="2128.47,3428.99 2127.67,3430.19 2127.61,3431.09 2128.29,3431.67 2129.71,3431.95"/>
    </edge>
    <edge id=":1663390527_0" function="internal">
        <lane id=":1663390527_0_0" index="0" disallow="tram rail_urban rail rail_electric rail_fast ship" speed="3.65" length="4.67" shape="2010.22,2113.15 2008.79,2112.98 2007.96,2113.33 2007.75,2114.20 2008.14,2115.59"/>
    </edge>
    <edge id=":1671131657_0" function="internal">
        <lane id=":1671131657_0_0" index="0" disallow="tram rail_urban rail rail_electric rail_fast ship" speed="3.65" length="4.67" shape="2528.67,2151.36 2529.95,2150.69 2530.43,2149.94 2530.12,2149.10 2529.01,2148.18"/>
    </edge>
    <edge id=":1687148388_0" function="internal">
        <lane id=":1687148388_0_0" index="0" disallow="tram rail_urban rail rail_electric rail_fast ship" speed="3.65" length="4.67" shape="2535.45,1780.70 2534.31,1781.59 2533.96,1782.41 2534.42,1783.18 2535.67,1783.90"/>
    </edge>
    <edge id=":1692045456_0" function="internal">
        <lane id=":1692045456_0_0" index="0" disallow="tram rail_urban rail rail_electric rail_fast ship" speed="27.78" length="0.93" shape="2431.17,3222.02 2430.34,3222.41"/>
        <lane id=":1692045456_0_1" index="1" disallow="tram rail_urban rail rail_electric rail_fast ship" speed="27.78" length="0.93" shape="2432.50,3224.93 2431.66,3225.32"/>
        <lane id=":1692045456_0_2" index="2" disallow="tram rail_urban rail rail_electric rail_fast ship" speed="27.78" length="0.93" shape="2433.83,3227.84 2432.99,3228.23"/>
        <lane id=":1692045456_0_3" index="3" disallow="tram rail_urban rail rail_electric rail_fast ship" speed="27.78" length="0.93" shape="2435.16,3230.75 2434.31,3231.15"/>
    </edge>
    <edge id=":1692045456_4" function="internal">
        <lane id=":1692045456_4_0" index="0" allow="private emergency authority army vip passenger hov taxi bus coach delivery truck trailer motorcycle evehicle custom1 custom2" speed="19.37" length="12.27" shape="2445.56,3229.55 2442.30,3228.92 2439.56,3227.86 2436.68,3227.32 2432.99,3228.23"/>
        <lane id=":1692045456_4_1" index="1" allow="private emergency authority army vip passenger hov taxi bus coach delivery truck trailer motorcycle evehicle custom1 custom2" speed="18.26" length="12.27" shape="2445.56,3229.55 2442.42,3229.41 2440.00,3229.41 2437.55,3229.89 2434.31,3231.15"/>
    </edge>
    <edge id=":1692045489_0" function="internal">
        <lane id=":1692045489_0_0" index="0" disallow="tram rail_urban rail rail_electric rail_fast ship" speed="18.06" length="13.19" shape="2460.40,2878.28 2457.00,2877.58 2453.98,2876.76 2451.04,2875.71 2447.87,2874.29"/>
    </edge>
    <edge id=":1692045489_1" function="internal">
        <lane id=":1692045489_1_0" index="0" disallow="tram rail_urban rail rail_electric rail_fast ship" speed="7.91" length="14.39" shape="2460.40,2878.28 2456.43,2878.11 2453.42,2879.27 2451.37,2881.75 2450.28,2885.57"/>
    </edge>
    <edge id=":1692045489_2" function="internal">
        <lane id=":1692045489_2_0" index="0" disallow="tram rail_urban rail rail_electric rail_fast ship" speed="3.65" length="2.56" shape="2460.40,2878.28 2459.07,2878.85 2458.53,2879.56 2458.59,2879.77"/>
    </edge>
    <edge id=":1692045489_9" function="internal">
        <lane id=":1692045489_9_0" index="0" disallow="tram rail_urban rail rail_electric rail_fast ship" speed="3.65" length="2.11" shape="2458.59,2879.77 2458.77,2880.42 2459.80,2881.43"/>
    </edge>
    <edge id=":1692045489_3" function="internal">
        <lane id=":1692045489_3_0" index="0" disallow="tram rail_urban rail rail_electric rail_fast ship" speed="6.40" length="9.04" shape="2453.45,2886.01 2454.13,2883.61 2455.42,2882.05 2457.31,2881.32 2459.80,2881.43"/>
    </edge>
    <edge id=":1692045489_4" function="internal">
        <lane id=":1692045489_4_0" index="0" disallow="tram rail_urban rail rail_electric rail_fast ship" speed="9.04" length="4.26" shape="2453.45,2886.01 2453.53,2882.11 2453.44,2881.76"/>
    </edge>
    <edge id=":1692045489_5" function="internal">
        <lane id=":1692045489_5_0" index="0" disallow="tram rail_urban rail rail_electric rail_fast ship" speed="3.65" length="2.08" shape="2453.45,2886.01 2452.82,2884.71 2452.29,2884.35"/>
    </edge>
    <edge id=":1692045489_10" function="internal">
        <lane id=":1692045489_10_0" index="0" disallow="tram rail_urban rail rail_electric rail_fast ship" speed="9.04" length="9.71" shape="2453.44,2881.76 2452.63,2878.85 2450.75,2876.25 2447.87,2874.29"/>
    </edge>
    <edge id=":1692045489_11" function="internal">
        <lane id=":1692045489_11_0" index="0" disallow="tram rail_urban rail rail_electric rail_fast ship" speed="3.65" length="2.59" shape="2452.29,2884.35 2452.08,2884.20 2451.23,2884.49 2450.28,2885.57"/>
    </edge>
    <edge id=":1692045489_6" function="internal">
        <lane id=":1692045489_6_0" index="0" disallow="tram rail_urban rail rail_electric rail_fast ship" speed="7.71" length="9.92" shape="2446.48,2877.17 2448.45,2878.54 2449.75,2880.40 2450.36,2882.74 2450.28,2885.57"/>
    </edge>
    <edge id=":1692045489_7" function="internal">
        <lane id=":1692045489_7_0" index="0" disallow="tram rail_urban rail rail_electric rail_fast ship" speed="18.06" length="14.03" shape="2446.48,2877.17 2449.77,2878.63 2452.98,2879.77 2456.28,2880.68 2459.80,2881.43"/>
    </edge>
    <edge id=":1692045489_8" function="internal">
        <lane id=":1692045489_8_0" index="0" disallow="tram rail_urban rail rail_electric rail_fast ship" speed="3.65" length="4.67" shape="2446.48,2877.17 2447.91,2876.97 2448.61,2876.43 2448.60,2875.53 2447.87,2874.29"/>
    </edge>
    <edge id=":1692045499_0" function="internal">
        <lane id=":1692045499_0_0" index="0" allow="private emergency authority army vip passenger hov taxi bus coach delivery truck trailer motorcycle evehicle custom1 custom2" speed="11.41" length="8.21" shape="2463.90,3246.27 2464.81,3243.99 2465.42,3242.34 2466.37,3240.99 2468.27,3239.63"/>
    </edge>
    <edge id=":1692045499_1" function="internal">
        <lane id=":1692045499_1_0" index="0" disallow="tram rail_urban rail rail_electric rail_fast ship" speed="27.78" length="8.22" shape="2461.00,3243.54 2468.27,3239.63"/>
        <lane id=":1692045499_1_1" index="1" disallow="tram rail_urban rail rail_electric rail_fast ship" speed="27.78" length="8.22" shape="2459.49,3240.72 2466.70,3236.85"/>
    </edge>
    <edge id=":1692045509_0" function="internal">
        <lane id=":1692045509_0_0" index="0" allow="private emergency authority army vip passenger hov taxi bus coach delivery truck trailer motorcycle evehicle custom1 custom2" speed="14.23" length="12.92" shape="2446.35,3241.75 2443.94,3239.33 2441.45,3237.62 2438.67,3236.39 2435.36,3235.44"/>
    </edge>
    <edge id=":1692045509_1" function="internal">
        <lane id=":1692045509_1_0" index="0" disallow="tram rail_urban rail rail_electric rail_fast ship" speed="27.78" length="11.94" shape="2436.93,3243.73 2439.52,3241.50 2441.31,3239.96 2443.25,3238.68 2446.31,3237.21"/>
        <lane id=":1692045509_1_1" index="1" disallow="tram rail_urban rail rail_electric rail_fast ship" speed="27.78" length="11.94" shape="2434.90,3241.25 2437.69,3238.86 2439.63,3237.22 2441.74,3235.85 2445.03,3234.27"/>
    </edge>
    <edge id=":1692045536_0" function="internal">
        <lane id=":1692045536_0_0" index="0" disallow="tram rail_urban rail rail_electric rail_fast ship" speed="14.18" length="6.99" shape="2456.18,3089.40 2455.80,3091.40 2455.23,3092.69 2454.37,3093.88 2453.17,3095.58"/>
    </edge>
    <edge id=":1692045536_1" function="internal">
        <lane id=":1692045536_1_0" index="0" disallow="tram rail_urban rail rail_electric rail_fast ship" speed="3.65" length="2.12" shape="2456.18,3089.40 2456.84,3090.69 2457.40,3091.06"/>
    </edge>
    <edge id=":1692045536_4" function="internal">
        <lane id=":1692045536_4_0" index="0" disallow="tram rail_urban rail rail_electric rail_fast ship" speed="3.65" length="2.55" shape="2457.40,3091.06 2457.58,3091.18 2458.43,3090.87 2459.36,3089.77"/>
    </edge>
    <edge id=":1692045536_2" function="internal">
        <lane id=":1692045536_2_0" index="0" disallow="tram rail_urban rail rail_electric rail_fast ship" speed="22.22" length="7.67" shape="2456.70,3096.90 2457.28,3094.73 2458.06,3093.34 2458.83,3091.95 2459.36,3089.77"/>
    </edge>
    <edge id=":1692045536_3" function="internal">
        <lane id=":1692045536_3_0" index="0" disallow="tram rail_urban rail rail_electric rail_fast ship" speed="5.09" length="3.80" shape="2456.70,3096.90 2456.94,3093.56 2456.78,3093.14"/>
    </edge>
    <edge id=":1692045536_5" function="internal">
        <lane id=":1692045536_5_0" index="0" disallow="tram rail_urban rail rail_electric rail_fast ship" speed="5.09" length="5.74" shape="2456.78,3093.14 2456.43,3092.23 2455.18,3092.90 2453.17,3095.58"/>
    </edge>
    <edge id=":1692045538_0" function="internal">
        <lane id=":1692045538_0_0" index="0" allow="private emergency authority army vip passenger hov taxi bus coach delivery truck trailer motorcycle evehicle custom1 custom2" speed="22.22" length="8.15" shape="2468.26,3191.59 2468.28,3189.17 2468.34,3187.51 2468.47,3185.86 2468.72,3183.45"/>
    </edge>
    <edge id=":1692045538_1" function="internal">
        <lane id=":1692045538_1_0" index="0" allow="private emergency authority army vip passenger hov taxi bus coach delivery truck trailer motorcycle evehicle custom1 custom2" speed="22.22" length="8.35" shape="2464.85,3191.44 2465.54,3183.12"/>
    </edge>
    <edge id=":1692045559_0" function="internal">
        <lane id=":1692045559_0_0" index="0" allow="private emergency authority army vip passenger hov taxi bus coach delivery truck trailer motorcycle evehicle custom1 custom2" speed="25.00" length="8.70" shape="2489.80,3197.03 2481.88,3200.63"/>
    </edge>
    <edge id=":1692045559_1" function="internal">
        <lane id=":1692045559_1_0" index="0" disallow="tram rail_urban rail rail_electric rail_fast ship" speed="27.78" length="8.51" shape="2491.03,3199.98 2488.55,3200.74 2486.75,3200.90 2484.94,3201.07 2482.48,3201.85"/>
        <lane id=":1692045559_1_1" index="1" disallow="tram rail_urban rail rail_electric rail_fast ship" speed="27.78" length="8.51" shape="2492.26,3202.93 2489.84,3203.67 2488.07,3203.82 2486.30,3203.97 2483.89,3204.73"/>
        <lane id=":1692045559_1_2" index="2" disallow="tram rail_urban rail rail_electric rail_fast ship" speed="27.78" length="8.51" shape="2493.49,3205.89 2491.12,3206.60 2489.39,3206.73 2487.66,3206.87 2485.30,3207.61"/>
        <lane id=":1692045559_1_3" index="3" disallow="tram rail_urban rail rail_electric rail_fast ship" speed="27.78" length="8.51" shape="2494.72,3208.84 2492.41,3209.53 2490.71,3209.65 2489.02,3209.77 2486.71,3210.48"/>
    </edge>
    <edge id=":1692045563_0" function="internal">
        <lane id=":1692045563_0_0" index="0" disallow="tram rail_urban rail rail_electric rail_fast ship" speed="3.65" length="4.67" shape="2347.95,2832.39 2346.59,2832.86 2346.00,2833.54 2346.19,2834.41 2347.15,2835.49"/>
    </edge>
    <edge id=":1692045569_0" function="internal">
        <lane id=":1692045569_0_0" index="0" disallow="tram rail_urban rail rail_electric rail_fast ship" speed="27.78" length="8.20" shape="2430.15,3222.49 2422.68,3225.88"/>
        <lane id=":1692045569_0_1" index="1" disallow="tram rail_urban rail rail_electric rail_fast ship" speed="27.78" length="8.20" shape="2431.47,3225.41 2424.00,3228.79"/>
        <lane id=":1692045569_0_2" index="2" disallow="tram rail_urban rail rail_electric rail_fast ship" speed="27.78" length="8.20" shape="2432.79,3228.32 2425.33,3231.71"/>
        <lane id=":1692045569_0_3" index="3" disallow="tram rail_urban rail rail_electric rail_fast ship" speed="27.78" length="8.20" shape="2434.12,3231.23 2426.65,3234.62"/>
    </edge>
    <edge id=":1692045569_4" function="internal">
        <lane id=":1692045569_4_0" index="0" allow="private emergency authority army vip passenger hov taxi bus coach delivery truck trailer motorcycle evehicle custom1 custom2" speed="8.87" length="4.57" shape="2430.19,3234.17 2425.33,3231.71"/>
        <lane id=":1692045569_4_1" index="1" allow="private emergency authority army vip passenger hov taxi bus coach delivery truck trailer motorcycle evehicle custom1 custom2" speed="7.38" length="4.57" shape="2430.19,3234.17 2429.13,3233.96 2428.38,3233.96 2427.65,3234.18 2426.65,3234.62"/>
    </edge>
    <edge id=":1692045583_0" function="internal">
        <lane id=":1692045583_0_0" index="0" disallow="tram rail_urban rail rail_electric rail_fast ship" speed="8.92" length="7.48" shape="2417.30,3223.99 2416.38,3226.31 2415.41,3228.11 2414.39,3229.38 2413.32,3230.14"/>
    </edge>
    <edge id=":1692045583_1" function="internal">
        <lane id=":1692045583_1_0" index="0" disallow="tram rail_urban rail rail_electric rail_fast ship" speed="9.98" length="9.48" shape="2417.30,3223.99 2416.88,3225.75 2416.19,3228.72 2415.40,3231.60 2414.64,3233.05"/>
    </edge>
    <edge id=":1692045583_2" function="internal">
        <lane id=":1692045583_2_0" index="0" disallow="tram rail_urban rail rail_electric rail_fast ship" speed="27.78" length="7.86" shape="2420.47,3226.88 2413.32,3230.14"/>
        <lane id=":1692045583_2_1" index="1" disallow="tram rail_urban rail rail_electric rail_fast ship" speed="27.78" length="7.86" shape="2421.80,3229.80 2414.64,3233.05"/>
        <lane id=":1692045583_2_2" index="2" disallow="tram rail_urban rail rail_electric rail_fast ship" speed="27.78" length="7.86" shape="2423.12,3232.71 2415.97,3235.97"/>
        <lane id=":1692045583_2_3" index="3" disallow="tram rail_urban rail rail_electric rail_fast ship" speed="27.78" length="7.86" shape="2424.45,3235.62 2417.29,3238.88"/>
    </edge>
    <edge id=":1692045593_0" function="internal">
        <lane id=":1692045593_0_0" index="0" disallow="tram rail_urban rail rail_electric rail_fast ship" speed="27.78" length="7.85" shape="2474.52,3235.65 2480.81,3231.11"/>
        <lane id=":1692045593_0_1" index="1" disallow="tram rail_urban rail rail_electric rail_fast ship" speed="27.78" length="7.85" shape="2472.69,3233.03 2479.14,3228.38"/>
    </edge>
    <edge id=":1692045593_2" function="internal">
        <lane id=":1692045593_2_0" index="0" disallow="tram rail_urban rail rail_electric rail_fast ship" speed="12.15" length="8.73" shape="2471.66,3229.13 2474.50,3229.96 2476.49,3231.20 2478.35,3231.89 2480.81,3231.11"/>
        <lane id=":1692045593_2_1" index="1" disallow="tram rail_urban rail rail_electric rail_fast ship" speed="10.70" length="8.73" shape="2471.95,3225.94 2479.14,3228.38"/>
    </edge>
    <edge id=":1692045608_0" function="internal">
        <lane id=":1692045608_0_0" index="0" disallow="tram rail_urban rail rail_electric rail_fast ship" speed="27.78" length="7.11" shape="2352.14,3293.32 2354.26,3292.43 2355.68,3291.75 2357.06,3291.00 2359.05,3289.85"/>
        <lane id=":1692045608_0_1" index="1" disallow="tram rail_urban rail rail_electric rail_fast ship" speed="27.78" length="7.11" shape="2350.92,3290.36 2352.92,3289.52 2354.27,3288.88 2355.57,3288.16 2357.45,3287.08"/>
        <lane id=":1692045608_0_2" index="2" disallow="tram rail_urban rail rail_electric rail_fast ship" speed="27.78" length="7.11" shape="2349.70,3287.41 2351.58,3286.61 2352.85,3286.01 2354.08,3285.33 2355.85,3284.31"/>
        <lane id=":1692045608_0_3" index="3" disallow="tram rail_urban rail rail_electric rail_fast ship" speed="27.78" length="7.11" shape="2348.48,3284.45 2350.25,3283.70 2351.43,3283.13 2352.58,3282.50 2354.25,3281.53"/>
    </edge>
    <edge id=":1692045608_4" function="internal">
        <lane id=":1692045608_4_0" index="0" disallow="tram rail_urban rail rail_electric rail_fast ship" speed="27.78" length="10.06" shape="2347.26,3281.49 2356.51,3285.45"/>
    </edge>
    <edge id=":1692045608_5" function="internal">
        <lane id=":1692045608_5_0" index="0" disallow="tram rail_urban rail rail_electric rail_fast ship" speed="27.78" length="9.77" shape="2346.04,3278.53 2354.90,3282.66"/>
    </edge>
    <edge id=":1692045608_6" function="internal">
        <lane id=":1692045608_6_0" index="0" disallow="tram rail_urban rail rail_electric rail_fast ship" speed="27.78" length="9.49" shape="2344.82,3275.58 2353.28,3279.87"/>
    </edge>
    <edge id=":1692045610_0" function="internal">
        <lane id=":1692045610_0_0" index="0" allow="private emergency authority army vip passenger hov taxi bus coach delivery truck trailer motorcycle evehicle custom1 custom2" speed="18.09" length="13.81" shape="2374.05,3281.22 2377.91,3279.43 2381.05,3278.78 2384.03,3278.74 2387.39,3278.78"/>
    </edge>
    <edge id=":1692045610_1" function="internal">
        <lane id=":1692045610_1_0" index="0" disallow="tram rail_urban rail rail_electric rail_fast ship" speed="27.78" length="15.46" shape="2372.45,3278.44 2376.38,3276.61 2379.32,3275.97 2382.37,3275.58 2386.64,3274.49"/>
        <lane id=":1692045610_1_1" index="1" disallow="tram rail_urban rail rail_electric rail_fast ship" speed="27.78" length="15.46" shape="2370.85,3275.67 2374.95,3273.74 2378.00,3273.04 2381.18,3272.61 2385.62,3271.46"/>
        <lane id=":1692045610_1_2" index="2" disallow="tram rail_urban rail rail_electric rail_fast ship" speed="27.78" length="15.46" shape="2369.26,3272.90 2373.51,3270.87 2376.69,3270.12 2379.99,3269.63 2384.61,3268.43"/>
    </edge>
    <edge id=":1692045614_0" function="internal">
        <lane id=":1692045614_0_0" index="0" allow="private emergency authority army vip passenger hov taxi bus coach delivery truck trailer motorcycle evehicle custom1 custom2" speed="22.22" length="9.28" shape="2436.15,3115.01 2436.07,3117.77 2436.04,3119.66 2435.89,3121.54 2435.44,3124.25"/>
    </edge>
    <edge id=":1692045614_1" function="internal">
        <lane id=":1692045614_1_0" index="0" disallow="tram rail_urban rail rail_electric rail_fast ship" speed="20.57" length="9.29" shape="2439.83,3116.20 2438.22,3118.45 2437.03,3119.98 2436.14,3121.63 2435.44,3124.25"/>
    </edge>
    <edge id=":1692045616_0" function="internal">
        <lane id=":1692045616_0_0" index="0" allow="private emergency authority army vip passenger hov taxi bus coach delivery truck trailer motorcycle evehicle custom1 custom2" speed="30.83" length="10.19" shape="2512.62,2760.49 2510.80,2762.91 2509.65,2764.66 2508.65,2766.48 2507.29,2769.14"/>
    </edge>
    <edge id=":1692045616_1" function="internal">
        <lane id=":1692045616_1_0" index="0" allow="private emergency authority army vip passenger hov taxi bus coach delivery truck trailer motorcycle evehicle custom1 custom2" speed="39.44" length="9.42" shape="2515.16,2762.43 2513.48,2764.66 2512.44,2766.27 2511.63,2768.01 2510.62,2770.61"/>
    </edge>
    <edge id=":1692045616_2" function="internal">
        <lane id=":1692045616_2_0" index="0" allow="private emergency authority army vip passenger hov taxi bus coach delivery truck trailer motorcycle evehicle custom1 custom2" speed="37.89" length="8.47" shape="2517.70,2764.38 2516.19,2766.38 2515.25,2767.83 2514.52,2769.40 2513.62,2771.74"/>
    </edge>
    <edge id=":1692045627_0" function="internal">
        <lane id=":1692045627_0_0" index="0" disallow="tram rail_urban rail rail_electric rail_fast ship" speed="27.78" length="2.81" shape="2456.72,3236.43 2457.52,3236.07 2458.03,3235.75 2458.53,3235.40 2459.29,3234.97"/>