<?xml version="1.0" encoding="UTF-8"?>

<!-- generated on 12/29/20 20:31:40 by Eclipse SUMO polyconvert Version 1.6.0
<configuration xmlns:xsi="http://www.w3.org/2001/XMLSchema-instance" xsi:noNamespaceSchemaLocation="http://sumo.dlr.de/xsd/polyconvertConfiguration.xsd">

    <input>
        <net-file value="osm.net.xml"/>
        <osm-files value="osm_bbox.osm.xml"/>
        <osm.keep-full-type value="true"/>
        <type-file value="C:\Program%20Files%20(x86)\DLR\sumo-1.6.0\data\typemap\osmPolyconvert.typ.xml"/>
    </input>

    <output>
        <output-file value="osm.poly.xml"/>
    </output>

    <processing>
        <poi-layer-offset value="5"/>
    </processing>

    <report>
        <verbose value="true"/>
    </report>

</configuration>
-->

<additional xmlns:xsi="http://www.w3.org/2001/XMLSchema-instance" xsi:noNamespaceSchemaLocation="http://sumo.dlr.de/xsd/additional_file.xsd">
    <location netOffset="-665445.43,-1514381.00" convBoundary="-1404.74,-0.00,6550.42,13293.80" origBoundary="100.517160,13.693759,100.590478,13.813737" projParameter="+proj=utm +zone=47 +ellps=WGS84 +datum=WGS84 +units=m +no_defs"/>

    <poly id="157071134" type="landuse.retail" color="194,194,130" fill="1" layer="-3.00" shape="4340.667756,3051.417252 4399.795944,3030.294451 4392.720645,3018.897351 4371.830388,2953.044707 4312.702063,2974.167586 4340.667756,3051.417252"/>
    <poly id="157071135" type="landuse.retail" color="194,194,130" fill="1" layer="-3.00" shape="4215.824008,3097.105399 4165.667772,2945.918737 4266.052309,2854.324058 4338.080813,3051.710208 4215.824008,3097.105399"/>
    <poly id="163681698" type="landuse.reservoir" color="194,194,130" fill="1" layer="-3.00" shape="2844.360538,3379.860670 2852.421307,3344.166913 2847.355418,3319.628914 2820.091588,3319.165539 2817.463691,3332.535267 2819.654690,3341.643469 2828.876701,3350.642101 2828.454624,3370.818949 2833.630497,3376.616321 2844.360538,3379.860670"/>
    <poly id="163681699" type="amenity.parking" color="184,184,179" fill="1" layer="-1.00" shape="2875.907373,3281.345667 2967.575157,3285.897486 2962.223736,3387.800822 2871.961147,3385.116685 2875.319299,3303.778373 2875.907373,3281.345667"/>
    <poly id="163681720" type="amenity.parking" color="184,184,179" fill="1" layer="-1.00" shape="3004.207182,3539.230489 2962.578583,3539.017212 2968.321278,3376.467015 2976.532027,3376.232335 3007.398843,3376.486797 3004.207182,3539.230489"/>
    <poly id="176191025" type="building.apartments" color="255,230,230" fill="1" layer="-1.00" shape="3979.834282,3417.994260 3966.867168,3382.816955 3940.370545,3392.458277 3953.326872,3427.635496 3979.834282,3417.994260"/>
    <poly id="176191025#1" type="tourism.hotel" color="207,245,201" fill="1" layer="-2.00" shape="3979.834282,3417.994260 3966.867168,3382.816955 3940.370545,3392.458277 3953.326872,3427.635496 3979.834282,3417.994260"/>
    <poly id="176191026" type="building.residential" color="255,230,230" fill="1" layer="-1.00" shape="3963.388987,3230.429037 3961.973373,3225.231111 3971.621767,3213.477987 3970.206153,3208.280060 3957.496616,3198.395414 3957.532145,3192.919254 3950.016673,3196.001442 3944.230782,3202.568763 3941.609729,3211.457807 3938.221314,3211.922615 3940.158260,3220.122106 3943.905955,3219.294536 3948.909645,3226.595661 3955.860171,3230.568267 3963.388987,3230.429037"/>
    <poly id="176195929" type="building.yes" color="255,230,230" fill="1" layer="-1.00" shape="3884.009242,3078.865387 3858.070061,3007.493105 3887.146655,2997.016507 3914.241174,3068.683967 3884.009242,3078.865387"/>
    <poly id="176195929#1" type="tourism.hotel" color="207,245,201" fill="1" layer="-2.00" shape="3884.009242,3078.865387 3858.070061,3007.493105 3887.146655,2997.016507 3914.241174,3068.683967 3884.009242,3078.865387"/>
    <poly id="176195930" type="building.apartments" color="255,230,230" fill="1" layer="-1.00" shape="3813.426997,3046.677939 3835.434977,3030.402503 3839.237659,3026.101363 3841.304625,3020.926025 3841.049969,3015.160339 3839.630585,3010.537697 3835.005611,3008.206528 3817.755616,3014.633184 3812.536798,3020.485089 3813.426997,3046.677939"/>
    <poly id="176195930#1" type="tourism.hotel" color="207,245,201" fill="1" layer="-2.00" shape="3813.426997,3046.677939 3835.434977,3030.402503 3839.237659,3026.101363 3841.304625,3020.926025 3841.049969,3015.160339 3839.630585,3010.537697 3835.005611,3008.206528 3817.755616,3014.633184 3812.536798,3020.485089 3813.426997,3046.677939"/>
    <poly id="176195932" type="building.yes" color="255,230,230" fill="1" layer="-1.00" shape="4237.483500,3149.476575 4232.089274,3130.711140 4263.493223,3119.951369 4272.920964,3097.244109 4290.849646,3104.562936 4277.848873,3136.164091 4237.483500,3149.476575"/>
    <poly id="176195934" type="building.yes" color="255,230,230" fill="1" layer="-1.00" shape="3909.950575,3148.213125 3915.170751,3148.822280 3959.241132,3107.885885 3955.794048,3102.387132 3899.107112,3120.760857 3909.950575,3148.213125"/>
    <poly id="176195934#1" type="tourism.hotel" color="207,245,201" fill="1" layer="-2.00" shape="3909.950575,3148.213125 3915.170751,3148.822280 3959.241132,3107.885885 3955.794048,3102.387132 3899.107112,3120.760857 3909.950575,3148.213125"/>
    <poly id="176332733" type="building.yes" color="255,230,230" fill="1" layer="-1.00" shape="3985.826832,3347.913217 3976.811416,3322.132270 4011.413398,3310.187074 4020.428787,3335.968036 3985.826832,3347.913217"/>
    <poly id="176332738" type="building.yes" color="255,230,230" fill="1" layer="-1.00" shape="3804.145049,2728.179837 3795.533119,2708.497559 3894.714034,2665.650146 3903.315095,2685.332393 3804.145049,2728.179837"/>
    <poly id="176332742" type="building.yes" color="255,230,230" fill="1" layer="-1.00" shape="4317.266105,2746.257440 4307.016300,2717.359531 4397.215363,2677.011212 4401.803291,2688.369998 4398.321112,2711.558433 4347.254897,2751.939836 4342.809520,2745.272880 4329.459186,2750.751002 4325.991535,2743.426599 4317.266105,2746.257440"/>
    <poly id="176332742#1" type="shop.supermarket" color="237,199,255" fill="1" layer="-1.00" shape="4317.266105,2746.257440 4307.016300,2717.359531 4397.215363,2677.011212 4401.803291,2688.369998 4398.321112,2711.558433 4347.254897,2751.939836 4342.809520,2745.272880 4329.459186,2750.751002 4325.991535,2743.426599 4317.266105,2746.257440"/>
    <poly id="197012662" type="building.supermarket" color="255,230,230" fill="1" layer="-1.00" shape="4242.607303,2980.162004 4246.685193,2978.462607 4247.224706,2983.654860 4261.200240,2976.819972 4257.163542,2972.180291 4268.214652,2967.638659 4252.386399,2926.689631 4230.062154,2946.635756 4234.084307,2951.850636 4236.831010,2953.605440 4242.607303,2980.162004"/>
    <poly id="197128356" type="building.yes" color="255,230,230" fill="1" layer="-1.00" shape="4267.093295,3056.968546 4285.978607,3051.902544 4280.571299,3035.150558 4277.376956,3035.705094 4268.561528,3009.128765 4263.212980,2993.317558 4261.727407,2988.904660 4257.005212,2991.551322 4252.722728,2991.446049 4254.127090,2998.369816 4249.180213,3000.638863 4264.740117,3049.585010 4266.330102,3054.573886 4267.093295,3056.968546"/>
    <poly id="197128604" type="building.yes" color="255,230,230" fill="1" layer="-1.00" shape="4212.898551,3003.003026 4208.533855,3005.563511 4201.853073,3006.681769 4196.056371,3004.907154 4190.860528,3000.547603 4189.167470,2994.772561 4188.647098,2984.966988 4190.105734,2983.538218 4193.024874,2980.393041 4212.898551,3003.003026"/>
    <poly id="197131384" type="building.yes" color="255,230,230" fill="1" layer="-1.00" shape="4206.882241,3036.696321 4202.538574,3034.355846 4201.415012,3029.159800 4202.019681,3025.988526 4204.661819,3020.529296 4211.376235,3014.233575 4215.402117,3018.873179 4216.251947,3022.916851 4218.214122,3033.882390 4206.882241,3036.696321"/>
    <poly id="197131385" type="building.yes" color="255,230,230" fill="1" layer="-1.00" shape="4241.297227,3008.663939 4248.299428,3006.352930 4245.987736,3000.905766 4252.391382,2997.495590 4263.212980,2993.317558 4259.720310,2984.853466 4245.759335,2991.113150 4243.183217,2984.746004 4225.743426,2990.396732 4229.143609,3003.108573 4230.836260,3010.609510 4235.770049,3010.353919 4241.297227,3008.663939"/>
    <poly id="197131386" type="building.yes" color="255,230,230" fill="1" layer="-1.00" shape="4214.008876,3055.185351 4225.636438,3051.809110 4220.502426,3037.935407 4207.721327,3040.728859 4214.008876,3055.185351"/>
    <poly id="197131387" type="shop.car" color="237,199,255" fill="1" layer="-1.00" shape="4234.238113,3068.006540 4228.682840,3074.022137 4222.002146,3075.129324 4216.246178,3068.752583 4214.834337,3062.979365 4217.472738,3058.095410 4230.551530,3054.429888 4234.238113,3068.006540"/>
    <poly id="197131388" type="building.yes" color="255,230,230" fill="1" layer="-1.00" shape="4192.768497,2974.903918 4200.950900,2965.741240 4205.909061,2961.735300 4204.798646,2954.514734 4201.061431,2948.726413 4198.774229,2949.497058 4193.506043,2951.277237 4185.020335,2962.174905 4184.396589,2969.948440 4185.233741,2974.279676 4187.253929,2976.317405 4192.768497,2974.903918"/>
    <poly id="197174398" type="amenity.parking" color="184,184,179" fill="1" layer="-1.00" shape="4298.186889,3047.379512 4319.712105,3038.867839 4262.705062,2883.399117 4252.257126,2883.331226 4257.112328,2896.838027 4281.324219,2964.238879 4282.436481,2971.171814 4271.920739,2983.206859 4298.186889,3047.379512"/>
    <poly id="198802029" type="landuse.industrial" color="209,209,204" fill="1" layer="-3.00" shape="2355.155506,1602.452462 2269.988154,1683.022111 2218.174159,1747.542848 2355.898359,1891.088268 2405.603040,1845.129568 2439.212583,1826.172702 2503.968986,1863.484972 2507.542010,1857.876698 2521.670386,1835.674884 2548.987498,1792.747719 2658.079206,1821.870886 2615.511142,2154.006165 2771.374934,2306.853583 2789.160758,2312.975503 2805.860311,2308.060282 2816.580719,2301.115158 2874.360853,2143.369911 2880.592554,2126.350367 2871.119773,2114.230292 2709.752879,2056.690842 2736.503500,1938.783931 3151.380878,1955.297495 3435.541138,1950.118142 3444.743809,1858.395835 3302.203466,1876.891290 3298.836180,1790.298678 3296.472605,1712.419427 3439.239455,1699.180407 3451.079226,1788.571551 3605.757018,1764.966617 3625.597323,1739.461090 3620.446239,1699.699156 3593.322786,1704.015458 3584.837795,1659.596420 3557.182133,1543.794200 3541.443965,1547.133164 3507.556634,1553.640648 3433.652149,1567.844174 3221.424459,1595.526298 2818.567847,1543.952477 2563.993895,1408.448710 2355.155506,1602.452462"/>
    <poly id="200974347" type="amenity.parking" color="184,184,179" fill="1" layer="-1.00" shape="4238.244636,2897.511997 4231.623843,2889.392680 4167.718216,2946.629050 4173.133092,2962.230454 4186.552594,2951.077182 4183.672686,2948.181985 4197.425867,2928.954585 4206.117515,2931.312239 4238.244636,2897.511997"/>
    <poly id="200974544" type="amenity.parking" color="184,184,179" fill="1" layer="-1.00" shape="4319.126723,3040.733753 4324.556518,3054.023043 4276.272844,3072.450626 4271.406509,3062.329151 4283.908344,3059.235204 4288.587569,3053.213923 4319.126723,3040.733753"/>
    <poly id="224714999" type="amenity.marketplace" color="237,199,199" fill="1" layer="-1.00" shape="3325.017617,2743.898305 3335.370560,2770.384555 3235.429293,2808.947503 3225.076346,2782.450239 3325.017617,2743.898305"/>
    <poly id="224714999#1" type="building.yes" color="255,230,230" fill="1" layer="-1.00" shape="3325.017617,2743.898305 3335.370560,2770.384555 3235.429293,2808.947503 3225.076346,2782.450239 3325.017617,2743.898305"/>
    <poly id="224715000" type="building.yes" color="255,230,230" fill="1" layer="-1.00" shape="2753.356123,2981.911699 2795.909743,2974.662735 2785.212279,2912.605846 2742.647820,2919.843705 2753.356123,2981.911699"/>
    <poly id="224715001" type="building.yes" color="255,230,230" fill="1" layer="-1.00" shape="3079.482288,2599.473761 3057.279761,2597.316994 3059.814973,2571.511456 3082.017522,2573.668222 3079.482288,2599.473761"/>
    <poly id="224715002" type="building.yes" color="255,230,230" fill="1" layer="-1.00" shape="2998.141321,2563.081684 3026.737992,2568.322059 3024.544687,2579.692114 3009.474268,2581.907164 2997.033796,2570.453804 2998.141321,2563.081684"/>
    <poly id="231395249" type="building.yes" color="255,230,230" fill="1" layer="-1.00" shape="3752.233675,2107.629472 3801.826101,2216.305554 3907.448780,2257.913479 3998.425104,2216.241115 3990.349932,2198.841326 3907.933142,2236.586377 3870.462864,2221.927919 3874.091552,2212.779874 3888.494970,2218.404919 3892.706875,2207.722843 3877.181320,2201.670116 3878.445943,2198.469925 3861.053667,2191.719180 3859.865761,2194.764981 3841.566804,2187.720727 3837.508204,2198.116154 3854.275020,2204.575181 3850.711090,2213.745774 3816.454372,2200.579655 3770.317410,2099.482219 3752.233675,2107.629472"/>
    <poly id="231395252" type="building.yes" color="255,230,230" fill="1" layer="-1.00" shape="3923.501600,2364.491740 3930.681099,2383.235440 3940.938439,2379.363371 3943.352826,2385.674103 3946.529764,2384.477727 3950.241733,2394.182276 3955.251141,2392.289725 3946.029519,2368.211277 3937.799761,2371.322052 3933.704795,2360.630380 3923.501600,2364.491740"/>
    <poly id="231395254" type="building.yes" color="255,230,230" fill="1" layer="-1.00" shape="3839.656828,2116.902599 3862.352559,2168.206808 3890.647007,2180.084179 3977.695247,2142.048248 3969.028397,2122.476206 3891.493018,2156.358665 3876.978600,2152.834950 3872.224150,2142.083705 3909.451432,2125.829431 3901.989238,2108.964697 3862.950512,2126.003811 3855.808181,2109.849223 3839.656828,2116.902599"/>
    <poly id="231395262" type="building.residential" color="255,230,230" fill="1" layer="-1.00" shape="4288.651657,2161.137204 4373.324093,2179.222902 4375.807268,2169.945763 4290.788690,2151.857812 4288.651657,2161.137204"/>
    <poly id="231395264" type="building.residential" color="255,230,230" fill="1" layer="-1.00" shape="4377.537572,2291.477681 4379.675855,2282.010223 4474.372587,2302.075438 4472.722568,2311.302672 4377.537572,2291.477681"/>
    <poly id="231395266" type="building.warehouse" color="255,230,230" fill="1" layer="-1.00" shape="3969.015377,2304.646163 3981.058898,2333.909529 3997.736348,2327.446023 3985.459554,2297.462013 3969.015377,2304.646163"/>
    <poly id="231395275" type="building.yes" color="255,230,230" fill="1" layer="-1.00" shape="4162.627878,2216.377182 4220.776366,2191.463739 4216.467372,2177.097570 4156.847961,2201.990414 4162.627878,2216.377182"/>
    <poly id="231395278" type="building.warehouse" color="255,230,230" fill="1" layer="-1.00" shape="4198.953221,2354.042786 4223.990877,2417.665154 4172.217048,2438.725601 4144.971036,2377.036119 4198.953221,2354.042786"/>
    <poly id="231395280" type="building.yes" color="255,230,230" fill="1" layer="-1.00" shape="4091.952443,2246.553082 4153.549658,2220.212575 4146.787067,2205.576036 4086.177164,2231.447240 4091.952443,2246.553082"/>
    <poly id="231395282" type="building.yes" color="255,230,230" fill="1" layer="-1.00" shape="4131.233448,2187.187263 4156.503814,2178.356725 4150.963415,2163.728120 4126.925985,2172.577728 4131.233448,2187.187263"/>
    <poly id="231395285" type="building.residential" color="255,230,230" fill="1" layer="-1.00" shape="4487.531991,2231.200175 4585.662531,2253.843767 4587.446791,2245.602055 4488.626230,2222.611005 4487.531991,2231.200175"/>
    <poly id="231395287" type="building.tower" color="255,230,230" fill="1" layer="-1.00" shape="3797.693961,2049.354258 3863.545612,2064.207516 3871.204929,2030.624409 3805.353121,2015.782204 3797.693961,2049.354258"/>
    <poly id="231395290" type="building.yes" color="255,230,230" fill="1" layer="-1.00" shape="4440.262021,2103.453143 4453.466775,2103.782393 4456.711671,2018.946995 4443.250193,2019.833057 4440.262021,2103.453143"/>
    <poly id="231395291" type="building.warehouse" color="255,230,230" fill="1" layer="-1.00" shape="4007.466947,2261.372078 4069.035906,2237.697485 4075.527654,2255.739774 4011.990070,2281.094281 4007.466947,2261.372078"/>
    <poly id="231395294" type="building.residential" color="255,230,230" fill="1" layer="-1.00" shape="4282.195261,2270.877593 4352.695078,2284.401577 4354.468118,2277.874615 4282.943321,2262.286174 4282.195261,2270.877593"/>
    <poly id="231395300" type="building.residential" color="255,230,230" fill="1" layer="-1.00" shape="4494.546247,2192.147628 4619.659837,2218.739478 4621.918499,2210.733187 4495.584250,2183.889996 4494.546247,2192.147628"/>
    <poly id="231395301" type="building.warehouse" color="255,230,230" fill="1" layer="-1.00" shape="3774.594395,2537.985537 3799.198064,2593.583631 3881.130061,2562.019676 3859.487348,2503.519941 3774.594395,2537.985537"/>
    <poly id="231395305" type="building.residential" color="255,230,230" fill="1" layer="-1.00" shape="4488.097887,2205.724773 4619.813625,2233.333154 4622.070975,2223.866481 4490.610289,2195.286171 4488.097887,2205.724773"/>
    <poly id="231395311" type="amenity.parking" color="184,184,179" fill="1" layer="-1.00" shape="4053.584537,2133.512683 4094.878795,2142.288350 4108.936507,2074.505536 4068.446575,2068.445612 4053.584537,2133.512683"/>
    <poly id="231395311#1" type="building.yes" color="255,230,230" fill="1" layer="-1.00" shape="4053.584537,2133.512683 4094.878795,2142.288350 4108.936507,2074.505536 4068.446575,2068.445612 4053.584537,2133.512683"/>
    <poly id="231395314" type="building.warehouse" color="255,230,230" fill="1" layer="-1.00" shape="3976.998158,2394.665556 4039.070793,2368.327914 4023.401745,2332.723786 3963.028720,2358.829099 3976.998158,2394.665556"/>
    <poly id="231395317" type="building.residential" color="255,230,230" fill="1" layer="-1.00" shape="4386.520691,2225.730811 4462.203345,2240.660636 4464.338136,2231.735267 4387.965465,2216.457987 4386.520691,2225.730811"/>
    <poly id="231395320" type="building.residential" color="255,230,230" fill="1" layer="-1.00" shape="4299.451782,2330.134759 4410.044161,2352.515723 4411.835051,2343.245150 4300.898823,2320.507919 4299.451782,2330.134759"/>
    <poly id="231395328" type="building.warehouse" color="255,230,230" fill="1" layer="-1.00" shape="4065.255561,2406.909964 4048.848176,2370.084048 4112.643844,2343.270954 4128.070080,2379.603759 4065.255561,2406.909964"/>
    <poly id="231395332" type="building.yes" color="255,230,230" fill="1" layer="-1.00" shape="4193.113041,2154.033598 4238.507085,2136.095836 4234.429789,2122.693686 4187.824337,2140.623592 4193.113041,2154.033598"/>
    <poly id="231395337" type="building.residential" color="255,230,230" fill="1" layer="-1.00" shape="4378.997607,2264.879631 4508.253320,2291.508964 4510.035661,2281.895371 4381.139056,2254.925403 4378.997607,2264.879631"/>
    <poly id="231395341" type="building.yes" color="255,230,230" fill="1" layer="-1.00" shape="3898.147641,2352.887825 3923.840658,2342.223304 3916.384145,2324.495646 3890.691116,2335.160175 3898.147641,2352.887825"/>
    <poly id="231395347" type="building.residential" color="255,230,230" fill="1" layer="-1.00" shape="4265.046494,2226.656338 4358.702307,2245.486297 4360.486422,2237.255641 4267.527327,2217.733208 4265.046494,2226.656338"/>
    <poly id="231395357" type="building.residential" color="255,230,230" fill="1" layer="-1.00" shape="4371.257645,2304.115549 4474.932390,2325.765885 4476.976387,2315.833154 4373.850481,2294.606792 4371.257645,2304.115549"/>
    <poly id="231395362" type="building.residential" color="255,230,230" fill="1" layer="-1.00" shape="4387.040830,2252.208971 4506.270574,2277.058286 4509.084552,2268.480303 4387.795613,2242.588696 4387.040830,2252.208971"/>
    <poly id="231395369" type="building.yes" color="255,230,230" fill="1" layer="-1.00" shape="3980.089696,2153.105052 3997.419001,2196.254077 4019.254329,2188.374718 3998.252360,2144.471674 3980.089696,2153.105052"/>
    <poly id="231395373" type="building.residential" color="255,230,230" fill="1" layer="-1.00" shape="4302.544704,2355.191381 4330.197653,2360.869590 4332.517741,2350.053574 4304.689498,2344.717192 4302.544704,2355.191381"/>
    <poly id="231395374" type="building.yes" color="255,230,230" fill="1" layer="-1.00" shape="3932.916666,2393.771233 3935.939667,2401.302885 3943.595601,2398.276897 3940.583418,2390.745314 3932.916666,2393.771233"/>
    <poly id="231395381" type="building.warehouse" color="255,230,230" fill="1" layer="-1.00" shape="4029.337851,2323.037555 4091.174416,2296.444023 4077.217453,2260.364181 4012.686087,2287.183670 4029.337851,2323.037555"/>
    <poly id="231395382" type="building.warehouse" color="255,230,230" fill="1" layer="-1.00" shape="4047.173935,2364.729558 4108.520555,2338.619687 4093.098928,2301.567808 4030.766492,2327.903659 4047.173935,2364.729558"/>
    <poly id="231395385" type="building.residential" color="255,230,230" fill="1" layer="-1.00" shape="4324.094961,2367.877334 4341.206043,2371.263306 4338.372398,2381.213037 4321.954617,2377.665620 4324.094961,2367.877334"/>
    <poly id="231395390" type="building.residential" color="255,230,230" fill="1" layer="-1.00" shape="4399.243419,2172.078447 4469.131029,2186.638703 4471.403890,2176.441938 4401.259575,2163.096987 4399.243419,2172.078447"/>
    <poly id="231395391" type="building.residential" color="255,230,230" fill="1" layer="-1.00" shape="4481.565372,2243.884315 4586.267492,2267.256589 4588.404558,2257.988273 4484.044050,2235.304150 4481.565372,2243.884315"/>
    <poly id="231395394" type="building.yes" color="255,230,230" fill="1" layer="-1.00" shape="4217.621823,2110.912639 4267.970404,2121.207745 4270.711186,2112.230986 4219.403126,2101.442857 4217.621823,2110.912639"/>
    <poly id="231395398" type="building.residential" color="255,230,230" fill="1" layer="-1.00" shape="4394.018894,2185.420170 4470.992242,2201.486867 4473.019502,2190.801713 4396.285397,2176.196941 4394.018894,2185.420170"/>
    <poly id="231395399" type="building.residential" color="255,230,230" fill="1" layer="-1.00" shape="4392.147914,2212.004485 4462.984990,2226.913875 4464.432021,2217.298101 4394.622033,2204.121281 4392.147914,2212.004485"/>
    <poly id="231395408" type="building.warehouse" color="255,230,230" fill="1" layer="-1.00" shape="4080.777757,2465.126795 4059.678102,2416.332992 4040.020372,2373.677702 3979.415709,2398.818949 4018.947899,2490.746771 4080.777757,2465.126795"/>
    <poly id="231395412" type="building.yes" color="255,230,230" fill="1" layer="-1.00" shape="4418.231484,2028.178190 4431.694278,2028.752497 4431.730487,2098.054041 4417.782592,2097.233181 4418.231484,2028.178190"/>
    <poly id="231395414" type="building.warehouse" color="255,230,230" fill="1" layer="-1.00" shape="4072.471917,2424.956961 4137.253384,2397.895877 4151.437059,2435.681011 4088.628954,2462.013609 4072.471917,2424.956961"/>
    <poly id="231395421" type="building.residential" color="255,230,230" fill="1" layer="-1.00" shape="4275.884871,2283.216568 4343.202260,2297.107077 4344.836272,2290.335816 4276.289120,2274.268886 4275.884871,2283.216568"/>
    <poly id="231395422" type="building.warehouse" color="255,230,230" fill="1" layer="-1.00" shape="3437.539305,2183.192188 3358.488216,2215.782979 3350.414189,2196.469480 3429.476137,2163.878730 3437.539305,2183.192188"/>
    <poly id="231395427" type="building.residential" color="255,230,230" fill="1" layer="-1.00" shape="4247.685151,2181.847360 4366.571473,2206.339724 4368.369037,2196.040294 4248.777083,2173.601141 4247.685151,2181.847360"/>
    <poly id="231395428" type="building.residential" color="255,230,230" fill="1" layer="-1.00" shape="4305.078941,2316.408422 4408.061443,2338.053995 4409.515141,2327.409364 4306.858580,2308.863667 4305.078941,2316.408422"/>
    <poly id="231395430" type="building.warehouse" color="255,230,230" fill="1" layer="-1.00" shape="3472.153602,2181.225392 3624.145066,2121.094279 3603.292350,2069.061014 3451.300589,2129.203337 3472.153602,2181.225392"/>
    <poly id="231395434" type="building.warehouse" color="255,230,230" fill="1" layer="-1.00" shape="4278.194983,2322.219073 4303.240402,2384.624608 4248.295799,2405.907713 4222.269196,2343.009079 4278.194983,2322.219073"/>
    <poly id="231395436" type="building.residential" color="255,230,230" fill="1" layer="-1.00" shape="4240.684841,2193.827834 4358.535326,2219.585734 4362.337280,2212.098377 4241.435114,2184.893464 4240.684841,2193.827834"/>
    <poly id="231395437" type="building.yes" color="255,230,230" fill="1" layer="-1.00" shape="3887.019180,2394.369836 3917.998626,2380.785650 3911.037058,2365.130057 3880.057672,2378.703190 3887.019180,2394.369836"/>
    <poly id="231395443" type="building.residential" color="255,230,230" fill="1" layer="-1.00" shape="4322.086019,2156.021845 4369.260205,2165.433589 4371.062229,2154.448256 4324.066757,2144.163661 4322.086019,2156.021845"/>
    <poly id="231395445" type="building.residential" color="255,230,230" fill="1" layer="-1.00" shape="4257.340456,2240.712146 4351.638170,2258.959893 4350.872670,2250.259066 4259.490840,2229.375044 4257.340456,2240.712146"/>
    <poly id="231395448" type="building.warehouse" color="255,230,230" fill="1" layer="-1.00" shape="3942.811159,2307.396996 4003.157742,2283.714341 3996.665651,2267.386901 3936.550750,2292.033592 3942.811159,2307.396996"/>
    <poly id="231395452" type="building.yes" color="255,230,230" fill="1" layer="-1.00" shape="3912.067946,2434.692365 3896.460059,2394.641235 3915.642004,2387.253528 3925.568525,2412.719460 3931.499857,2410.434599 3937.181126,2425.030876 3912.067946,2434.692365"/>
    <poly id="231395454" type="building.tower" color="255,230,230" fill="1" layer="-1.00" shape="4072.106049,2151.267913 4035.793242,2166.598568 4037.943170,2173.659905 4027.052473,2176.775527 4040.827432,2210.918049 4118.814442,2182.460032 4112.165437,2161.982760 4072.106049,2151.267913"/>
    <poly id="231395459" type="building.residential" color="255,230,230" fill="1" layer="-1.00" shape="4334.891325,2357.636382 4332.749899,2367.590612 4369.550439,2375.397174 4400.104132,2360.803988 4346.541826,2349.115815 4344.020781,2364.223134 4339.006666,2363.504615 4339.905441,2358.354900 4334.891325,2357.636382"/>
    <poly id="231395465" type="leisure.pitch" color="207,245,201" fill="1" layer="-2.00" shape="3939.803493,2204.067422 3973.116991,2190.874562 3960.527170,2157.436765 3926.697473,2171.832211 3939.803493,2204.067422"/>
    <poly id="231395465#1" type="sport.tennis" color="79,230,125" fill="1" layer="-2.00" shape="3939.803493,2204.067422 3973.116991,2190.874562 3960.527170,2157.436765 3926.697473,2171.832211 3939.803493,2204.067422"/>
    <poly id="231395471" type="amenity.parking" color="184,184,179" fill="1" layer="-1.00" shape="3771.893054,2081.658229 3798.819391,2146.133076 3833.519896,2130.880167 3813.235881,2082.954889 3791.355815,2074.360736 3771.893054,2081.658229"/>
    <poly id="25026398" type="amenity.exhibition_centre" color="237,199,199" fill="1" layer="-1.00" shape="3037.433427,3525.803781 3037.333049,3499.461246 3028.648031,3499.449447 3028.645195,3380.894355 3022.955863,3380.924021 3023.058698,3366.664002 3023.128765,3357.481858 3002.990531,3357.340853 3002.759020,3292.640784 3074.731626,3292.076342 3199.088275,3291.109165 3199.811776,3339.848016 3200.648254,3396.210266 3197.649245,3406.723229 3209.049396,3406.686240 3208.930091,3423.479678 3211.297543,3425.342557 3212.043496,3423.721060 3217.736658,3426.446241 3219.035769,3424.584923 3228.287098,3430.696364 3218.854878,3437.516845 3217.785989,3435.551721 3212.066908,3438.512949 3211.417533,3436.904563 3209.102419,3438.659747 3209.199490,3455.443521 3198.741085,3455.364893 3198.863342,3459.879542 3203.358038,3465.628345 3203.403084,3475.397600 3143.673226,3476.151323 3143.876598,3442.984636 3128.571184,3443.140258 3128.129492,3524.940003 3037.433427,3525.803781"/>
    <poly id="25026398#1" type="building.yes" color="255,230,230" fill="1" layer="-1.00" shape="3037.433427,3525.803781 3037.333049,3499.461246 3028.648031,3499.449447 3028.645195,3380.894355 3022.955863,3380.924021 3023.058698,3366.664002 3023.128765,3357.481858 3002.990531,3357.340853 3002.759020,3292.640784 3074.731626,3292.076342 3199.088275,3291.109165 3199.811776,3339.848016 3200.648254,3396.210266 3197.649245,3406.723229 3209.049396,3406.686240 3208.930091,3423.479678 3211.297543,3425.342557 3212.043496,3423.721060 3217.736658,3426.446241 3219.035769,3424.584923 3228.287098,3430.696364 3218.854878,3437.516845 3217.785989,3435.551721 3212.066908,3438.512949 3211.417533,3436.904563 3209.102419,3438.659747 3209.199490,3455.443521 3198.741085,3455.364893 3198.863342,3459.879542 3203.358038,3465.628345 3203.403084,3475.397600 3143.673226,3476.151323 3143.876598,3442.984636 3128.571184,3443.140258 3128.129492,3524.940003 3037.433427,3525.803781"/>
    <poly id="25042811" type="building.yes" color="255,230,230" fill="1" layer="-1.00" shape="4166.521923,2892.676037 4128.142386,2798.332428 4279.914473,2730.127613 4302.748537,2786.544592 4228.032423,2856.168011 4207.600420,2857.882869 4196.424343,2863.341983 4201.892513,2879.065436 4181.346714,2898.304033 4176.743907,2890.894835 4166.521923,2892.676037"/>
    <poly id="25042811#1" type="shop.supermarket" color="237,199,255" fill="1" layer="-1.00" shape="4166.521923,2892.676037 4128.142386,2798.332428 4279.914473,2730.127613 4302.748537,2786.544592 4228.032423,2856.168011 4207.600420,2857.882869 4196.424343,2863.341983 4201.892513,2879.065436 4181.346714,2898.304033 4176.743907,2890.894835 4166.521923,2892.676037"/>