<?xml version="1.0" encoding="UTF-8"?>

<!-- generated on 01/15/21 08:31:12 by Eclipse SUMO netconvert Version 1.6.0
<configuration xmlns:xsi="http://www.w3.org/2001/XMLSchema-instance" xsi:noNamespaceSchemaLocation="http://sumo.dlr.de/xsd/netconvertConfiguration.xsd">

    <input>
        <sumo-net-file value="osm.net.xml"/>
    </input>

    <output>
        <output-file value="osm_new.net.xml"/>
        <output.street-names value="true"/>
    </output>

    <processing>
        <geometry.min-radius.fix.railways value="false"/>
        <geometry.max-grade.fix value="false"/>
        <offset.disable-normalization value="true"/>
        <lefthand value="true"/>
    </processing>

    <edge_removal>
        <keep-edges.by-vclass value="passenger"/>
        <remove-edges.by-vclass value="hov,taxi,bus,delivery,transport,lightrail,cityrail,rail_slow,rail_fast,motorcycle,bicycle,pedestrian"/>
        <remove-edges.by-type value="highway.track,highway.services,highway.unsurfaced"/>
    </edge_removal>

    <junctions>
        <no-internal-links value="true"/>
        <no-turnarounds value="true"/>
        <junctions.corner-detail value="5"/>
        <junctions.limit-turn-speed value="5.5"/>
        <rectangular-lane-cut value="false"/>
    </junctions>

    <pedestrian>
        <walkingareas value="false"/>
    </pedestrian>

    <report>
        <aggregate-warnings value="5"/>
    </report>

</configuration>
-->

<net version="1.6" junctionCornerDetail="5" lefthand="true" limitTurnSpeed="5.50" xmlns:xsi="http://www.w3.org/2001/XMLSchema-instance" xsi:noNamespaceSchemaLocation="http://sumo.dlr.de/xsd/net_file.xsd">

    <location netOffset="-665445.43,-1514381.00" convBoundary="0.00,0.00,6550.42,4391.05" origBoundary="100.517160,13.693759,100.590478,13.813737" projParameter="+proj=utm +zone=47 +ellps=WGS84 +datum=WGS84 +units=m +no_defs"/>

    <type id="highway.bridleway" priority="1" numLanes="1" speed="2.78" allow="pedestrian" oneway="1" width="2.00"/>
    <type id="highway.bus_guideway" priority="1" numLanes="1" speed="27.78" allow="bus" oneway="1"/>
    <type id="highway.cycleway" priority="1" numLanes="1" speed="8.33" allow="bicycle" oneway="0" width="1.00"/>
    <type id="highway.footway" priority="1" numLanes="1" speed="2.78" allow="pedestrian" oneway="1" width="2.00"/>
    <type id="highway.ford" priority="1" numLanes="1" speed="2.78" allow="army" oneway="0"/>
    <type id="highway.living_street" priority="2" numLanes="1" speed="2.78" disallow="tram rail_urban rail rail_electric rail_fast ship" oneway="0"/>
    <type id="highway.motorway" priority="14" numLanes="2" speed="39.44" allow="private emergency authority army vip passenger hov taxi bus coach delivery truck trailer motorcycle evehicle custom1 custom2" oneway="1"/>
    <type id="highway.motorway_link" priority="9" numLanes="1" speed="22.22" allow="private emergency authority army vip passenger hov taxi bus coach delivery truck trailer motorcycle evehicle custom1 custom2" oneway="1"/>
    <type id="highway.path" priority="1" numLanes="1" speed="2.78" allow="pedestrian bicycle" oneway="1" width="2.00"/>
    <type id="highway.pedestrian" priority="1" numLanes="1" speed="2.78" allow="pedestrian" oneway="1" width="2.00"/>
    <type id="highway.primary" priority="12" numLanes="2" speed="27.78" disallow="tram rail_urban rail rail_electric rail_fast ship" oneway="0"/>
    <type id="highway.primary_link" priority="7" numLanes="1" speed="22.22" disallow="tram rail_urban rail rail_electric rail_fast ship" oneway="0"/>
    <type id="highway.raceway" priority="15" numLanes="2" speed="83.33" allow="vip" oneway="0"/>
    <type id="highway.residential" priority="3" numLanes="1" speed="13.89" disallow="tram rail_urban rail rail_electric rail_fast ship" oneway="0"/>
    <type id="highway.secondary" priority="11" numLanes="1" speed="27.78" disallow="tram rail_urban rail rail_electric rail_fast ship" oneway="0"/>
    <type id="highway.secondary_link" priority="6" numLanes="1" speed="22.22" disallow="tram rail_urban rail rail_electric rail_fast ship" oneway="0"/>
    <type id="highway.service" priority="1" numLanes="1" speed="5.56" allow="pedestrian delivery bicycle" oneway="0"/>
    <type id="highway.stairs" priority="1" numLanes="1" speed="1.39" allow="pedestrian" oneway="1" width="2.00"/>
    <type id="highway.step" priority="1" numLanes="1" speed="1.39" allow="pedestrian" oneway="1" width="2.00"/>
    <type id="highway.steps" priority="1" numLanes="1" speed="1.39" allow="pedestrian" oneway="1" width="2.00"/>
    <type id="highway.tertiary" priority="10" numLanes="1" speed="22.22" disallow="tram rail_urban rail rail_electric rail_fast ship" oneway="0"/>
    <type id="highway.tertiary_link" priority="5" numLanes="1" speed="22.22" disallow="tram rail_urban rail rail_electric rail_fast ship" oneway="0"/>
    <type id="highway.track" priority="1" numLanes="1" speed="5.56" disallow="tram rail_urban rail rail_electric rail_fast ship" oneway="0"/>
    <type id="highway.trunk" priority="13" numLanes="2" speed="27.78" disallow="pedestrian bicycle tram rail_urban rail rail_electric rail_fast ship" oneway="0"/>
    <type id="highway.trunk_link" priority="8" numLanes="1" speed="22.22" disallow="pedestrian bicycle tram rail_urban rail rail_electric rail_fast ship" oneway="0"/>
    <type id="highway.unclassified" priority="4" numLanes="1" speed="13.89" disallow="tram rail_urban rail rail_electric rail_fast ship" oneway="0"/>
    <type id="highway.unsurfaced" priority="1" numLanes="1" speed="8.33" disallow="tram rail_urban rail rail_electric rail_fast ship" oneway="0"/>
    <type id="railway.highspeed" priority="21" numLanes="1" speed="69.44" allow="rail_fast" oneway="1"/>
    <type id="railway.light_rail" priority="19" numLanes="1" speed="27.78" allow="rail_urban" oneway="1"/>
    <type id="railway.preserved" priority="16" numLanes="1" speed="27.78" allow="rail" oneway="1"/>
    <type id="railway.rail" priority="20" numLanes="1" speed="44.44" allow="rail" oneway="1"/>
    <type id="railway.subway" priority="18" numLanes="1" speed="27.78" allow="rail_urban" oneway="1"/>
    <type id="railway.tram" priority="17" numLanes="1" speed="13.89" allow="tram" oneway="1"/>

    <edge id="-145573668" from="1589652005" to="1589652002" priority="3" type="highway.residential">
        <lane id="-145573668_0" index="0" disallow="tram rail_urban rail rail_electric rail_fast ship" speed="13.89" length="240.13" shape="2129.71,3431.95 2351.28,3339.38">
            <param key="origId" value="145573668"/>
        </lane>
    </edge>
    <edge id="-153714072#1" from="8064255669" to="674053460" name="ซอยย่อย เย็นอากาศ 2 แยก 3-2" priority="3" type="highway.residential" shape="2194.05,2187.54 2196.50,2186.39 2198.55,2186.99 2217.60,2201.53 2220.67,2202.42 2223.12,2201.42 2238.88,2183.24 2255.86,2163.76 2271.30,2144.59">
        <lane id="-153714072#1_0" index="0" disallow="tram rail_urban rail rail_electric rail_fast ship" speed="13.89" length="109.17" shape="2199.83,2189.98 2216.87,2202.98 2220.76,2204.11 2224.08,2202.76 2240.09,2184.29 2257.09,2164.79 2268.06,2151.16">
            <param key="origId" value="153714072"/>
        </lane>
    </edge>
    <edge id="-153714072#2" from="673423490" to="8064255669" name="ซอยย่อย เย็นอากาศ 2 แยก 3-2" priority="3" type="highway.residential">
        <lane id="-153714072#2_0" index="0" disallow="tram rail_urban rail rail_electric rail_fast ship" speed="13.89" length="65.71" shape="2158.91,2234.15 2191.58,2193.21">
            <param key="origId" value="153714072"/>
        </lane>
    </edge>
    <edge id="-153714072#3" from="1663390527" to="673423490" name="ซอยย่อย เย็นอากาศ 2 แยก 3-2" priority="3" type="highway.residential" shape="2009.18,2114.37 2093.45,2186.55 2153.07,2238.90">
        <lane id="-153714072#3_0" index="0" disallow="tram rail_urban rail rail_electric rail_fast ship" speed="13.89" length="190.30" shape="2008.14,2115.59 2092.40,2187.76 2146.49,2235.25">
            <param key="origId" value="153714072"/>
        </lane>
    </edge>
    <edge id="-154579511#0" from="674054280" to="1671131657" name="Soi Navin" priority="3" type="highway.residential">
        <lane id="-154579511#0_0" index="0" disallow="tram rail_urban rail rail_electric rail_fast ship" speed="13.89" length="42.83" shape="2493.02,2147.49 2528.67,2151.36">
            <param key="origId" value="154579511"/>
        </lane>
    </edge>
    <edge id="-154579511#1" from="2989164245" to="674054280" name="Soi Navin" priority="3" type="highway.residential" shape="2369.36,2215.14 2381.56,2142.06 2384.20,2135.84 2388.73,2130.83 2395.27,2128.85 2486.26,2145.15">
        <lane id="-154579511#1_0" index="0" disallow="tram rail_urban rail rail_electric rail_fast ship" speed="13.89" length="186.87" shape="2372.12,2208.34 2383.11,2142.51 2385.57,2136.71 2389.62,2132.23 2395.37,2130.49 2478.96,2145.47">
            <param key="origId" value="154579511"/>
        </lane>
    </edge>
    <edge id="-154579511#2" from="cluster_673423471_8063029591" to="2989164245" name="Soi Navin" priority="3" type="highway.residential" shape="2351.27,2317.69 2369.36,2215.14">
        <lane id="-154579511#2_0" index="0" disallow="tram rail_urban rail rail_electric rail_fast ship" speed="13.89" length="111.99" shape="2354.12,2310.74 2369.67,2222.58">
            <param key="origId" value="154579511"/>
        </lane>
        <param key="origFrom" value="673423471"/>
    </edge>
    <edge id="-154579511#4" from="674054277" to="cluster_673423471_8063029591" name="Soi Navin" priority="3" type="highway.residential" shape="2454.81,2331.51 2405.62,2324.94 2351.27,2317.69">
        <lane id="-154579511#4_0" index="0" disallow="tram rail_urban rail rail_electric rail_fast ship" speed="13.89" length="112.32" shape="2447.99,2328.99 2405.83,2323.35 2358.75,2317.07">
            <param key="origId" value="154579511"/>
        </lane>
        <param key="origTo" value="673423471"/>
    </edge>
    <edge id="-154579511#5" from="673423470" to="674054277" name="Soi Navin" priority="3" type="highway.residential">
        <lane id="-154579511#5_0" index="0" disallow="tram rail_urban rail rail_electric rail_fast ship" speed="13.89" length="103.83" shape="2550.86,2341.77 2462.30,2330.82">
            <param key="origId" value="154579511"/>
        </lane>
    </edge>
    <edge id="-156261354#1" from="281733330" to="85703484" name="Soi Chok Di" priority="3" type="highway.residential" shape="3758.35,2916.55 3758.45,2892.37 3759.06,2886.52">
        <lane id="-156261354#1_0" index="0" disallow="tram rail_urban rail rail_electric rail_fast ship" speed="13.89" length="30.06" shape="3759.98,2909.75 3760.03,2896.48">
            <param key="origId" value="156261354"/>
        </lane>
    </edge>
    <edge id="-156261354#2" from="cluster_3593959115_3593959121" to="281733330" name="Soi Chok Di" priority="3" type="highway.residential" shape="3607.92,2935.76 3681.63,2926.33 3758.35,2916.55">
        <lane id="-156261354#2_0" index="0" disallow="tram rail_urban rail rail_electric rail_fast ship" speed="13.89" length="162.39" shape="3616.02,2936.34 3681.83,2927.92 3751.25,2919.07">
            <param key="origId" value="156261354"/>
        </lane>
        <param key="origFrom" value="3593959121"/>
    </edge>
    <edge id="-156261361#1" from="1867131748" to="277921833" name="ซอยไผ่สิงห์โต" priority="3" type="highway.residential" shape="3275.64,3048.92 3279.50,2909.55 3279.32,2895.02">
        <lane id="-156261361#1_0" index="0" disallow="tram rail_urban rail rail_electric rail_fast ship" speed="13.89" length="153.95" shape="3277.44,3041.85 3281.10,2909.56 3281.07,2907.17">
            <param key="origId" value="156261361"/>
        </lane>
    </edge>
    <edge id="-156261361#4" from="cluster_277921955_4162388073_4162388075_8185739689" to="1867131748" name="ซอยไผ่สิงห์โต" priority="3" type="highway.residential" shape="3327.46,3275.33 3297.66,3272.83 3289.80,3268.21 3287.34,3265.55 3283.47,3260.46 3277.05,3243.12 3266.55,3207.16 3268.19,3193.66 3269.73,3163.77 3275.64,3048.92">
        <lane id="-156261361#4_0" index="0" disallow="tram rail_urban rail rail_electric rail_fast ship" speed="13.89" length="272.01" shape="3320.31,3273.12 3298.16,3271.27 3290.81,3266.95 3288.57,3264.52 3284.89,3259.68 3278.57,3242.62 3268.18,3207.03 3269.79,3193.80 3271.33,3163.85 3276.87,3056.20">
            <param key="origId" value="156261361"/>
        </lane>
        <param key="origFrom" value="277921955"/>
    </edge>
    <edge id="-156261422#1" from="270329466" to="270329333" name="ซอยสุขุมวิท 22" priority="3" type="highway.residential" shape="3737.25,3110.87 3790.11,3068.78 3798.77,3062.78 3852.27,3025.58">
        <lane id="-156261422#1_0" index="0" disallow="tram rail_urban rail rail_electric rail_fast ship" speed="13.89" length="143.27" shape="3744.35,3107.26 3791.06,3070.06 3799.68,3064.09 3846.56,3031.50">
            <param key="origId" value="156261422"/>
        </lane>
    </edge>
    <edge id="-156261422#10" from="272197426" to="270329467" name="ซอยสุขุมวิท 22" priority="3" type="highway.residential" shape="3789.71,3916.17 3789.09,3891.87 3787.12,3823.43 3786.49,3801.05 3789.07,3745.88 3788.55,3627.63 3788.46,3615.60 3784.42,3571.41 3776.60,3529.56 3769.22,3487.05 3766.71,3471.43 3765.85,3466.01 3764.20,3440.89 3762.77,3423.52 3758.61,3372.87 3757.12,3354.65 3756.91,3352.11 3753.95,3316.18 3753.26,3307.72">
        <lane id="-156261422#10_0" index="0" disallow="tram rail_urban rail rail_electric rail_fast ship" speed="13.89" length="610.87" shape="3791.31,3916.13 3790.69,3891.83 3788.72,3823.38 3788.09,3801.06 3790.67,3745.91 3790.15,3627.62 3790.06,3615.52 3786.01,3571.19 3778.17,3529.28 3770.80,3486.79 3768.29,3471.18 3767.44,3465.83 3765.80,3440.77 3764.36,3423.39 3760.20,3372.74 3758.71,3354.52 3758.50,3351.98 3755.67,3317.62">
            <param key="origId" value="156261422"/>
        </lane>
    </edge>
    <edge id="-156261422#2" from="5678756062" to="270329466" name="ซอยสุขุมวิท 22" priority="3" type="highway.residential">
        <lane id="-156261422#2_0" index="0" disallow="tram rail_urban rail rail_electric rail_fast ship" speed="13.89" length="33.29" shape="3741.50,3136.72 3739.43,3116.43">
            <param key="origId" value="156261422"/>
        </lane>
    </edge>
    <edge id="-156261422#3" from="6680852874" to="5678756062" name="ซอยสุขุมวิท 22" priority="3" type="highway.residential">
        <lane id="-156261422#3_0" index="0" disallow="tram rail_urban rail rail_electric rail_fast ship" speed="13.89" length="59.24" shape="3746.82,3195.59 3742.88,3151.12">
            <param key="origId" value="156261422"/>
        </lane>
    </edge>
    <edge id="-156261422#4" from="6680852875" to="6680852874" name="ซอยสุขุมวิท 22" priority="3" type="highway.residential">
        <lane id="-156261422#4_0" index="0" disallow="tram rail_urban rail rail_electric rail_fast ship" speed="13.89" length="47.06" shape="3750.75,3242.41 3748.05,3209.97">
            <param key="origId" value="156261422"/>
        </lane>
    </edge>
    <edge id="-156261422#5" from="270329467" to="6680852875" name="ซอยสุขุมวิท 22" priority="3" type="highway.residential">
        <lane id="-156261422#5_0" index="0" disallow="tram rail_urban rail rail_electric rail_fast ship" speed="13.89" length="57.93" shape="3754.34,3299.05 3751.79,3256.89">
            <param key="origId" value="156261422"/>
        </lane>
    </edge>
    <edge id="-156261482#0" from="765319714" to="765319629" name="สุขุมวิท 36" priority="3" type="highway.residential" shape="5082.17,3295.08 5090.35,3317.16 5142.09,3468.09">
        <lane id="-156261482#0_0" index="0" disallow="tram rail_urban rail rail_electric rail_fast ship" speed="13.89" length="183.10" shape="5083.10,3302.20 5088.84,3317.70 5140.58,3468.61">
            <param key="origId" value="156261482"/>
        </lane>
    </edge>
    <edge id="-156261482#1" from="765319536" to="765319714" name="สุขุมวิท 36" priority="3" type="highway.residential">
        <lane id="-156261482#1_0" index="0" disallow="tram rail_urban rail rail_electric rail_fast ship" speed="13.89" length="94.54" shape="5053.76,3211.77 5078.43,3288.65">
            <param key="origId" value="156261482"/>
        </lane>
    </edge>
    <edge id="-156261482#12" from="765319721" to="765319662" name="สุขุมวิท 36" priority="3" type="highway.residential" shape="5000.30,2405.81 5000.11,2409.58 4997.25,2469.03 4996.49,2485.02 4995.79,2566.51 4990.10,2685.61">
        <lane id="-156261482#12_0" index="0" disallow="tram rail_urban rail rail_electric rail_fast ship" speed="13.89" length="280.03" shape="4998.17,2416.55 4995.65,2468.95 4994.89,2484.98 4994.19,2566.46 4988.85,2678.32">
            <param key="origId" value="156261482"/>
        </lane>
    </edge>
    <edge id="-156261482#2" from="cluster_6680852843_765319745" to="765319536" name="สุขุมวิท 36" priority="3" type="highway.residential" shape="5028.17,3116.34 5053.29,3205.06">
        <lane id="-156261482#2_0" index="0" disallow="tram rail_urban rail rail_electric rail_fast ship" speed="13.89" length="102.16" shape="5028.46,3123.22 5049.60,3197.90">
            <param key="origId" value="156261482"/>
        </lane>
        <param key="origFrom" value="765319745"/>
    </edge>
    <edge id="-156261482#4" from="765319572" to="cluster_6680852843_765319745" name="สุขุมวิท 36" priority="3" type="highway.residential" shape="5008.76,3008.42 5018.18,3068.98 5024.29,3096.81">
        <lane id="-156261482#4_0" index="0" disallow="tram rail_urban rail rail_electric rail_fast ship" speed="13.89" length="99.74" shape="5008.27,3015.69 5016.61,3069.27 5021.35,3090.87">
            <param key="origId" value="156261482"/>
        </lane>
        <param key="origTo" value="6680852843"/>
    </edge>
    <edge id="-156261482#5" from="3484265990" to="765319572" name="สุขุมวิท 36" priority="3" type="highway.residential">
        <lane id="-156261482#5_0" index="0" disallow="tram rail_urban rail rail_electric rail_fast ship" speed="13.89" length="33.42" shape="5003.17,2982.73 5006.06,3001.46">
            <param key="origId" value="156261482"/>
        </lane>
    </edge>
    <edge id="-156261482#6" from="765319603" to="3484265990" name="สุขุมวิท 36" priority="3" type="highway.residential" shape="4989.10,2819.28 4992.82,2910.44 4997.63,2945.68 5003.65,2975.39">
        <lane id="-156261482#6_0" index="0" disallow="tram rail_urban rail rail_electric rail_fast ship" speed="13.89" length="157.12" shape="4987.79,2826.38 4991.22,2910.58 4996.05,2945.95 5000.62,2968.48">
            <param key="origId" value="156261482"/>
        </lane>
    </edge>
    <edge id="-156261482#8" from="2680500880" to="765319603" name="สุขุมวิท 36" priority="3" type="highway.residential" shape="4989.52,2762.18 4989.42,2776.35 4989.10,2819.28">
        <lane id="-156261482#8_0" index="0" disallow="tram rail_urban rail rail_electric rail_fast ship" speed="13.89" length="57.10" shape="4987.87,2769.46 4987.82,2776.34 4987.55,2812.10">
            <param key="origId" value="156261482"/>
        </lane>
    </edge>
    <edge id="-156261482#9" from="765319662" to="2680500880" name="สุขุมวิท 36" priority="3" type="highway.residential">
        <lane id="-156261482#9_0" index="0" disallow="tram rail_urban rail rail_electric rail_fast ship" speed="13.89" length="76.57" shape="4988.45,2692.65 4987.97,2755.06">
            <param key="origId" value="156261482"/>
        </lane>
    </edge>
    <edge id="-156261483#0" from="cluster_1812175106_765319554" to="765319602" name="ซอยแสนสุข" priority="3" type="highway.residential" shape="4629.94,3016.42 4631.34,3032.38 4631.51,3033.67 4631.80,3034.44 4632.23,3035.02 4632.94,3035.30 4718.27,3024.84">
        <lane id="-156261483#0_0" index="0" disallow="tram rail_urban rail rail_electric rail_fast ship" speed="13.89" length="107.47" shape="4628.98,3023.82 4629.75,3032.53 4629.95,3034.06 4630.38,3035.21 4631.22,3036.34 4632.73,3036.94 4711.47,3027.29">
            <param key="origId" value="156261483"/>
        </lane>
        <param key="origFrom" value="1812175106"/>
    </edge>
    <edge id="-156261483#2" from="765319588" to="cluster_1812175106_765319554" name="ซอยแสนสุข" priority="3" type="highway.residential" shape="4627.95,2989.88 4629.32,3012.71">
        <lane id="-156261483#2_0" index="0" disallow="tram rail_urban rail rail_electric rail_fast ship" speed="13.89" length="24.76" shape="4626.79,2997.21 4627.28,3005.47">
            <param key="origId" value="156261483"/>
        </lane>
        <param key="origTo" value="765319554"/>
    </edge>
    <edge id="-156261483#3" from="765319482" to="765319588" name="ซอยแสนสุข" priority="3" type="highway.residential">
        <lane id="-156261483#3_0" index="0" disallow="tram rail_urban rail rail_electric rail_fast ship" speed="13.89" length="40.44" shape="4622.66,2957.03 4625.54,2982.78">
            <param key="origId" value="156261483"/>
        </lane>
    </edge>
    <edge id="-156261483#4" from="765319494" to="765319482" name="ซอยแสนสุข" priority="3" type="highway.residential">
        <lane id="-156261483#4_0" index="0" disallow="tram rail_urban rail rail_electric rail_fast ship" speed="13.89" length="40.62" shape="4619.01,2916.67 4621.23,2942.57">
            <param key="origId" value="156261483"/>
        </lane>
    </edge>
    <edge id="-156261483#5" from="765319666" to="765319494" name="ซอยแสนสุข" priority="3" type="highway.residential" shape="4617.86,2872.79 4618.48,2892.04 4619.98,2909.22">
        <lane id="-156261483#5_0" index="0" disallow="tram rail_urban rail rail_electric rail_fast ship" speed="13.89" length="36.51" shape="4616.50,2880.22 4616.88,2892.14 4617.75,2902.13">
            <param key="origId" value="156261483"/>
        </lane>
    </edge>
    <edge id="-156261483#6" from="765319504" to="765319666" name="ซอยแสนสุข" priority="3" type="highway.residential">
        <lane id="-156261483#6_0" index="0" disallow="tram rail_urban rail rail_electric rail_fast ship" speed="13.89" length="31.08" shape="4618.85,2849.09 4617.14,2864.72">
            <param key="origId" value="156261483"/>
        </lane>
    </edge>
    <edge id="-156261483#7" from="765319515" to="765319504" name="ซอยแสนสุข" priority="3" type="highway.residential" shape="4643.43,2642.44 4637.87,2691.17 4632.98,2741.55 4621.25,2841.90">
        <lane id="-156261483#7_0" index="0" disallow="tram rail_urban rail rail_electric rail_fast ship" speed="13.89" length="200.70" shape="4641.01,2649.50 4636.28,2691.00 4631.39,2741.38 4620.53,2834.31">
            <param key="origId" value="156261483"/>
        </lane>
    </edge>
    <edge id="-156261483#9" from="765319547" to="765319515" name="ซอยแสนสุข" priority="3" type="highway.residential" shape="4633.90,2554.03 4636.82,2561.33 4639.73,2575.12 4642.34,2597.81 4643.78,2619.12 4643.43,2642.44">
        <lane id="-156261483#9_0" index="0" disallow="tram rail_urban rail rail_electric rail_fast ship" speed="13.89" length="89.48" shape="4635.50,2562.84 4638.15,2575.38 4640.75,2597.96 4642.18,2619.16 4641.93,2635.60">
            <param key="origId" value="156261483"/>
        </lane>
    </edge>
    <edge id="-156261504#0" from="765319700" to="765319572" name="ซอยนภาศัพท์ 4" priority="3" type="highway.residential">
        <lane id="-156261504#0_0" index="0" disallow="tram rail_urban rail rail_electric rail_fast ship" speed="13.89" length="210.42" shape="4808.06,3035.10 5001.72,3010.91">
            <param key="origId" value="156261504"/>
        </lane>
    </edge>
    <edge id="-156261504#1" from="765319602" to="765319700" name="ซอยนภาศัพท์ 4" priority="3" type="highway.residential" shape="4718.27,3024.84 4720.54,3040.12 4722.04,3043.03 4726.63,3044.45 4799.96,3034.50">
        <lane id="-156261504#1_0" index="0" disallow="tram rail_urban rail rail_electric rail_fast ship" speed="13.89" length="97.53" shape="4717.72,3032.02 4719.00,3040.62 4720.93,3044.36 4726.49,3046.08 4793.68,3036.97">
            <param key="origId" value="156261504"/>
        </lane>
    </edge>
    <edge id="-156261504#2" from="765319499" to="765319602" name="ซอยนภาศัพท์ 4" priority="3" type="highway.residential">
        <lane id="-156261504#2_0" index="0" disallow="tram rail_urban rail rail_electric rail_fast ship" speed="13.89" length="21.53" shape="4715.34,3010.76 4716.02,3018.07">
            <param key="origId" value="156261504"/>
        </lane>
    </edge>
    <edge id="-156261504#3" from="765319639" to="765319499" name="ซอยนภาศัพท์ 4" priority="3" type="highway.residential">
        <lane id="-156261504#3_0" index="0" disallow="tram rail_urban rail rail_electric rail_fast ship" speed="13.89" length="23.29" shape="4712.88,2987.59 4713.86,2996.41">
            <param key="origId" value="156261504"/>
        </lane>
    </edge>
    <edge id="-156261504#4" from="cluster_3484270295_765319648" to="765319639" name="ซอยนภาศัพท์ 4" priority="3" type="highway.residential" shape="4709.72,2940.08 4713.67,2980.25">
        <lane id="-156261504#4_0" index="0" disallow="tram rail_urban rail rail_electric rail_fast ship" speed="13.89" length="48.92" shape="4708.84,2947.44 4711.38,2973.28">
            <param key="origId" value="156261504"/>
        </lane>
        <param key="origFrom" value="765319648"/>
    </edge>
    <edge id="-156966544" from="1692045563" to="1692045489" priority="3" type="highway.residential" shape="2347.55,2833.94 2369.30,2839.60 2374.50,2841.21 2378.42,2842.83 2408.64,2855.85 2416.75,2860.08 2424.55,2864.74 2452.86,2878.49">
        <lane id="-156966544_0" index="0" disallow="tram rail_urban rail rail_electric rail_fast ship" speed="13.89" length="114.77" shape="2347.15,2835.49 2368.86,2841.14 2373.96,2842.72 2377.80,2844.30 2407.95,2857.30 2415.97,2861.48 2423.79,2866.15 2446.48,2877.17">
            <param key="origId" value="156966544"/>
        </lane>
    </edge>
    <edge id="-156966566#0" from="8063328121" to="1692045489" priority="10" type="highway.tertiary" shape="2373.72,2953.53 2434.80,2965.74 2438.55,2964.58 2440.92,2960.21 2447.52,2917.61 2452.86,2878.49">
        <lane id="-156966566#0_0" index="0" disallow="tram rail_urban rail rail_electric rail_fast ship" speed="22.22" length="153.78" shape="2380.68,2956.55 2434.88,2967.39 2439.65,2965.92 2442.46,2960.73 2449.10,2917.84 2453.45,2886.01">
            <param key="origId" value="156966566"/>
        </lane>
    </edge>
    <edge id="-156966566#1" from="8063328123" to="8063328121" priority="10" type="highway.tertiary" shape="2313.26,2940.56 2315.41,2941.87 2373.72,2953.53">
        <lane id="-156966566#1_0" index="0" disallow="tram rail_urban rail rail_electric rail_fast ship" speed="22.22" length="61.98" shape="2321.15,2944.65 2366.55,2953.73">
            <param key="origId" value="156966566"/>
        </lane>
    </edge>
    <edge id="-156966567" from="1692045536" to="1692045701" name="ถนนเชื้อเพลิง" priority="10" type="highway.tertiary" shape="2457.93,3088.22 2470.77,2978.52 2484.09,2884.38">
        <lane id="-156966567_0" index="0" disallow="tram rail_urban rail rail_electric rail_fast ship" speed="22.22" length="210.93" shape="2459.36,3089.77 2472.36,2978.73 2484.65,2891.85">
            <param key="origId" value="156966567"/>
        </lane>
    </edge>
    <edge id="-168823181" from="1800206472" to="272555740" priority="3" type="highway.residential">
        <lane id="-168823181_0" index="0" disallow="tram rail_urban rail rail_electric rail_fast ship" speed="13.89" length="81.02" shape="4267.92,2532.78 4342.14,2533.65">
            <param key="origId" value="168823181"/>
        </lane>
    </edge>
    <edge id="-170065299#0" from="8064590785" to="267086951" name="Soi Atha Kravi 1" priority="3" type="highway.residential" shape="4370.12,3253.82 4366.70,3244.57 4363.63,3240.06 4359.73,3231.05 4357.84,3218.13 4359.93,3199.61 4359.71,3190.63 4357.22,3183.32 4284.49,3080.06">
        <lane id="-170065299#0_0" index="0" disallow="tram rail_urban rail rail_electric rail_fast ship" speed="13.89" length="199.84" shape="4369.22,3246.78 4368.13,3243.83 4365.04,3239.29 4361.28,3230.61 4359.45,3218.10 4361.53,3199.68 4361.30,3190.35 4358.66,3182.59 4290.56,3085.91">
            <param key="origId" value="170065299"/>
        </lane>
    </edge>
    <edge id="-170065299#1" from="1812170065" to="8064590785" name="Soi Atha Kravi 1" priority="3" type="highway.residential">
        <lane id="-170065299#1_0" index="0" disallow="tram rail_urban rail rail_electric rail_fast ship" speed="13.89" length="75.73" shape="4397.86,3324.31 4374.23,3260.32">
            <param key="origId" value="170065299"/>
        </lane>
    </edge>
    <edge id="-170065517#0" from="cluster_5804465607_6457542771" to="267086950" priority="3" type="highway.residential" shape="4388.91,2973.11 4408.40,3037.66">
        <lane id="-170065517#0_0" index="0" disallow="tram rail_urban rail rail_electric rail_fast ship" speed="13.89" length="69.64" shape="4389.54,2980.72 4404.84,3031.40">
            <param key="origId" value="170065517"/>
        </lane>
        <param key="origFrom" value="6457542771"/>
    </edge>
    <edge id="-170065517#2" from="5804465600" to="cluster_5804465607_6457542771" priority="3" type="highway.residential" shape="4361.14,2906.16 4384.05,2958.95 4387.17,2969.06">
        <lane id="-170065517#2_0" index="0" disallow="tram rail_urban rail rail_electric rail_fast ship" speed="13.89" length="70.33" shape="4362.56,2913.45 4382.55,2959.51 4383.43,2962.36">
            <param key="origId" value="170065517"/>
        </lane>
        <param key="origTo" value="5804465607"/>
    </edge>