<?xml version="1.0" encoding="UTF-8"?>
<!-- generated on 2021-01-15 09:02:45.310385 by cutRoutes.py v1_6_0+0003-190709904e
  options: osm_new.net.xml routes.rou.xml <doubleminus>routes-output routes_new_output.rou.xml <doubleminus>orig-net osm.net.xml
-->
<routes xmlns:xsi="http://www.w3.org/2001/XMLSchema-instance" xsi:noNamespaceSchemaLocation="http://sumo.dlr.de/xsd/routes_file.xsd">
    <vType id="veh_passenger" vClass="passenger"/>
    <vehicle depart="0.00" departLane="best" id="veh0" type="veh_passenger">
        <route edges="481971011#1 459492916#0 459492916#0-AddedOffRampEdge 824116544 338595769#0 338595769#1 824116552#0 824116552#1 824116552#2 824116553 824116557 824116556 157373201#0 157373201#0-AddedOffRampEdge 157373201#3 157373198 53271856#0 53271856#2 53271856#3 53271856#4 156966566#0 -156966566#0"/>
    </vehicle>
    <vehicle depart="1.60" departLane="best" id="veh1" type="veh_passenger">
        <route edges="688591739 -859507744#1 -859507744#0 170065517#2 170065517#3 170065517#5 820373194#0 482209833#0 292571830 321845932#2 321845932#3 482384850#0 482384850#1-AddedOnRampEdge"/>
    </vehicle>
    <vehicle depart="3.19" departLane="best" id="veh2" type="veh_passenger">
        <route edges="825786380 300803484 480596365 480596367#0 480596367#1 480596367#3 825786383#0 825786383#2 825786397#0 825786397#1 752225467 459492912#0 459492912#1 825786400 459492917#1 825786410 153225678#0 153225678#1-AddedOnRampEdge 153225678#1 156261361#0 -384633624#3"/>
    </vehicle>
    <vehicle depart="6.38" departLane="best" id="veh4" type="veh_passenger">
        <route edges="-847086240 824750039#1 25047974#0 25047974#1 25047974#2 25047974#3 25047974#4 25047974#5 25047974#6 25047974#7 25047974#8 459492913#0 459492913#2 459492913#3 459492913#4 825786399#0 825786399#1 825786399#2 786133405 825786398#0 825786398#1 752225466#0 825786395#0 480596363 466838066#0 466838066#1 300803492#0 300803492#1 300803492#2"/>
    </vehicle>
    <vehicle depart="11.17" departLane="best" id="veh7" type="veh_passenger">
        <route edges="-859507744#1 -859507744#0 170065517#2 170065517#3 170065517#5 820373194#0 482209831#0 482209831#2 459551208#1 820373195 820373196#0 820373198#0 825786415 825786416 481971011#0 481971011#1-AddedOnRampEdge 481971011#1 459492913#0 459492913#2 459492913#3 459492913#4"/>
    </vehicle>
    <vehicle depart="14.36" departLane="best" id="veh9" type="veh_passenger">
        <route edges="820340552#1 820340552#2 459551209#0 459551209#3 482209830#0 300813736#0 300813736#2 820345539#3 820345543 820345542#0 -156261482#12 -156261482#9 -156261482#8 -156261482#6 -156261482#5 -156261482#4 -156261482#2 -156261482#1 61232355#0"/>
    </vehicle>
    <vehicle depart="15.96" departLane="best" id="veh10" type="veh_passenger">
        <route edges="157373209#0 157373209#2 756119203 25047032#0 25047032#1-AddedOnRampEdge 25047032#1 824116558 824116559#0 25053626#0 25053626#0-AddedOffRampEdge 25053626#1 824750037 338595771#1 824116546 824116547 824116548 824116545 153225678#0 153225678#1-AddedOnRampEdge 153225678#1 153225678#2 153225678#3 820340552#0 820340552#1 820340552#2 459551209#0 459551209#3 482209830#0 -453962283#3 -693832668#3 76510937#0 170065299#0 865229405 76510933#3 450629007 -693832673#1"/>
    </vehicle>
    <vehicle depart="17.56" departLane="best" id="veh11" type="veh_passenger">
        <route edges="847059593 -847059593 25047974#5 25047974#6 25047974#7 25047974#8 459492916#0 459492916#0-AddedOffRampEdge 824116544 338595769#0 338595769#1 824116552#0 824116552#1 824116552#2 824116553 824116557 824116556 157373201#0 157373201#0-AddedOffRampEdge 157373201#3"/>
    </vehicle>
    <vehicle depart="19.15" departLane="best" id="veh12" type="veh_passenger">
        <route edges="824116547 824116548 824116545 153225678#0 153225678#1-AddedOnRampEdge 153225678#1 153225678#2 153225678#3 820340552#0 820340552#1 820340552#2 459551209#0"/>
    </vehicle>
    <vehicle depart="20.75" departLane="best" id="veh13" type="veh_passenger">
        <route edges="820340552#2 459551209#0 459551209#3 482209830#0 300813736#0 -170065517#9 -170065517#4 -170065517#2 859507744#0 -688591738#2 688591738#2"/>
    </vehicle>
    <vehicle depart="27.13" departLane="best" id="veh17" type="veh_passenger">
        <route edges="824116552#2 824116553 824116557 824116556 157373201#0 157373201#0-AddedOffRampEdge 157373199 25047032#1-AddedOnRampEdge 25047032#1 824116558 824116559#0 25053626#0 25053626#0-AddedOffRampEdge 847086239 25047974#1 25047974#2 25047974#3 25047974#4 25047974#5 25047974#6 25047974#7 25047974#8 459492913#0 459492913#2 459492913#3 459492913#4 825786399#0 825786399#1 825786399#2 459492912#0"/>
    </vehicle>
    <vehicle depart="30.32" departLane="best" id="veh19" type="veh_passenger">
        <route edges="-865094537 865094537 825786383#2 825786397#0 825786397#1 752225467 459492912#0 459492912#1 825786400 459492917#1 825786410 153225678#0 153225678#1-AddedOnRampEdge 153225678#1 153225678#2 153225678#3 820340552#0 820340552#1 820340552#2 459551209#0 459551209#3 482209830#0 300813736#0 300813736#2 -156261483#9 -156261483#7 -156261483#6 156261483#6"/>
    </vehicle>
    <vehicle depart="31.92" departLane="best" id="veh20" type="veh_passenger">
        <route edges="-353583726#2 353583726#2 353583726#3 353583731 384643705#0 384643705#1 384643705#3 384643705#4 384643705#5 820340552#0 820340552#1 820340552#2 459551209#0 459551209#3 482209831#0 482209831#2 459551208#1 820373195 820373196#0 820373198#0 825786415 157059855 824116549#0 824116550#0 824750039#1 338595769#0 338595769#1 824116552#0 824116552#1 824116552#2 824116553 824116557 824116556 157373201#0 157373201#0-AddedOffRampEdge 157373201#3 157373198 53271856#0 53271856#2 53271856#3 53271856#4 156966566#0 156966566#1 -865094548"/>
    </vehicle>
    <vehicle depart="33.52" departLane="best" id="veh21" type="veh_passenger">
        <route edges="-415179424#0 -353583726#1 -25505423#7 -25505423#4 -25505423#3 384643723#0 -609934253 294808467#2 294808467#3 294808467#4 294808467#6 156261422#6"/>
    </vehicle>
    <vehicle depart="35.11" departLane="best" id="veh22" type="veh_passenger">
        <route edges="481971011#0 481971011#1-AddedOnRampEdge 481971011#1 459492916#0 459492916#0-AddedOffRampEdge 824116544 185563494#0 185563494#1 824116554 824116555#0 824116555#2-AddedOnRampEdge 824116555#2 824116555#2-AddedOffRampEdge 824116555#5 482384848#0 482384848#1 55814053#0 55814053#2 55814053#3 55814053#6 211040172#0 -211040189#3 211040224#1 210884217#1-AddedOnRampEdge 210884217#1 210884217#2-AddedOnRampEdge 210884217#2 210884217#2-AddedOffRampEdge 25046556 829639199-AddedOnRampEdge 829639199 829639199-AddedOffRampEdge 156966554#1 185059748-AddedOnRampEdge"/>
    </vehicle>
    <vehicle depart="43.09" departLane="best" id="veh27" type="veh_passenger">
        <route edges="865229405 -865229405 -170065299#0 76510937#1 170065517#0 170065517#2 170065517#3 170065517#5 820373194#0 482209831#0 482209831#2 459551208#1 820373195 820373196#0 820373198#0 825786415 825786416 481971013#0 481971013#1-AddedOnRampEdge 481971013#1"/>
    </vehicle>
    <vehicle depart="46.28" departLane="best" id="veh29" type="veh_passenger">
        <route edges="824116545 153225678#0 153225678#1-AddedOnRampEdge 153225678#1 153225678#2 153225678#3 820340552#0 820340552#1 820340552#2 459551209#0 459551209#3 482209830#0 300813736#0 300813736#2 -156261483#9 -156261483#7 -156261483#6 -156261483#5 -156261483#4 -192166622#0 -61232366#3 772038321"/>
    </vehicle>
    <vehicle depart="47.88" departLane="best" id="veh30" type="veh_passenger">
        <route edges="-865094539#0 865094539#0 865094539#1 825786397#1 752225467 459492912#0 459492912#1 825786400 459492917#1 825786410 153225678#0 153225678#1-AddedOnRampEdge 153225678#1 153225678#2 153225678#3 820340552#0 820340552#1 820340552#2 459551209#0 459551209#3 482209830#0 300813736#0 300813736#2 -156261483#9 -156261483#7 -156261483#6 -156261483#5 -156261483#4 -192166622#0 170066043#1 -170066043#1"/>
    </vehicle>
    <vehicle depart="51.07" departLane="best" id="veh32" type="veh_passenger">
        <route edges="-836466791#2 836466791#2 836466791#3 836466791#4 25053183#1 820373196#0 820373198#0 825786415 825786416 481971011#0 481971011#1-AddedOnRampEdge 481971011#1 459492913#0 459492913#2 459492913#3 459492913#4 825786399#0 825786399#1 825786399#2 786133405 825786398#0 825786398#1 752225466#0 156966529#0 156966536-AddedOnRampEdge 156966536 25046707#0 25046707#1 25046707#1-AddedOffRampEdge 829639197"/>
    </vehicle>
    <vehicle depart="52.67" departLane="best" id="veh33" type="veh_passenger">
        <route edges="824116556 157373201#0 157373201#0-AddedOffRampEdge 157373199 25047032#1-AddedOnRampEdge 25047032#1 824116558 824116559#0 25053626#0 25053626#0-AddedOffRampEdge 847086239 25047974#1 25047974#2 25047974#3 25047974#4 25047974#5 25047974#6 25047974#7 25047974#8 459492913#0 459492913#2 459492913#3 459492913#4 825786399#0 825786399#1 825786399#2 786133405 825786398#0 825786398#1 752225466#0 156966529#0 156966536-AddedOnRampEdge 156966536 25046707#0 25046707#1 25046707#1-AddedOffRampEdge 25046778 829639198-AddedOnRampEdge 829639198 156970488"/>
    </vehicle>
    <vehicle depart="54.26" departLane="best" id="veh34" type="veh_passenger">
        <route edges="482209831#0 482209831#2 459551208#1 820373195 820373196#0 820373198#0 825786415 825786416 481971011#0 481971011#1-AddedOnRampEdge 481971011#1 459492913#0 459492913#2 459492913#3 459492913#4 825786399#0 825786399#1 825786399#2 786133405 825786398#0 825786398#1 752225466#0 156966529#0 156966536-AddedOnRampEdge 156966536 25046707#0 25046707#1 25046707#1-AddedOffRampEdge 829639197 25044852#0-AddedOnRampEdge 25044852#0 25044852#0-AddedOffRampEdge 211040206"/>
    </vehicle>
    <vehicle depart="57.46" departLane="best" id="veh36" type="veh_passenger">
        <route edges="153225678#3 820340552#0 820340552#1 820340552#2 459551209#0 459551209#3 482209833#0 -836466791#6 877424239#0 -877424239#0"/>
    </vehicle>
    <vehicle depart="59.05" departLane="best" id="veh37" type="veh_passenger">
        <route edges="459492912#0 459492908#0 459492910 295213513#2 786133405 825786398#0 825786398#1 752225466#0 825786395#0"/>
    </vehicle>
    <vehicle depart="67.03" departLane="best" id="veh42" type="veh_passenger">
        <route edges="-25828935 -693832665 -384633617 -156261361#4 -156261361#1 153225678#2 153225678#3 820340552#0 820340552#1 820340552#2 459551209#0 459551209#3 482209833#0 292571830 321845932#2 482384845 482384848#1 55814053#0 55814053#2 55814053#3 55814053#6 211040172#0 -211040189#3 211040224#1 210884217#1-AddedOnRampEdge 210884217#1 210884217#2-AddedOnRampEdge 210884217#2 210884217#2-AddedOffRampEdge"/>
    </vehicle>
    <vehicle depart="68.63" departLane="best" id="veh43" type="veh_passenger">
        <route edges="865054786 -41574018#0 -41574015#0 25505561#4 25505561#5 25505561#6 693779343#1 -464252889 -708155016#8 -708155016#7 -708155016#6 -708155016#5 -708155016#3 756119203 25047032#0 25047032#1-AddedOnRampEdge 25047032#1 824116558 824116559#0 25053626#0 25053626#0-AddedOffRampEdge 25053626#1 707581276 338595769#1 824116552#0 824116552#1 824116552#2"/>
    </vehicle>
    <vehicle depart="70.22" departLane="best" id="veh44" type="veh_passenger">
        <route edges="-156261422#2 -156261422#1 836466787#0 836466787#2 459551209#0 459551209#3 482209831#0 482209831#2 459551208#1 820373195 820373196#0 820373198#0 825786415 825786416 481971011#0 481971011#1-AddedOnRampEdge 481971011#1 459492913#0 459492913#2 618739069#0 618739069#1 618739071 618739072#0"/>
    </vehicle>
    <vehicle depart="73.41" departLane="best" id="veh46" type="veh_passenger">
        <route edges="153225687#0 153225687#2 153225687#2-AddedOffRampEdge 482384844 482384850#1-AddedOnRampEdge 482384850#1 482384850#2 338595767 338595771#1 824116546 824116547 824116548 824116545 481971013#0 481971013#1-AddedOnRampEdge 481971013#1"/>
    </vehicle>
    <vehicle depart="75.01" departLane="best" id="veh47" type="veh_passenger">
        <route edges="824116555#5 482384850#0 482384850#1-AddedOnRampEdge 482384850#1 482384850#2 338595767 338595771#1 824116546 824116547 824116548 824116545 153225678#0 153225678#1-AddedOnRampEdge 153225678#1 153225678#2 153225678#3"/>
    </vehicle>
    <vehicle depart="78.20" departLane="best" id="veh49" type="veh_passenger">
        <route edges="825786399#0 825786399#1 825786399#2 459492912#0 459492912#1 825786400 459492916#0 459492916#0-AddedOffRampEdge 824116544 185563494#0 185563494#1 824116554 824116555#0 824116555#2-AddedOnRampEdge 824116555#2 824116555#2-AddedOffRampEdge"/>
    </vehicle>
    <vehicle depart="81.39" departLane="best" id="veh51" type="veh_passenger">
        <route edges="459551209#0 340089692#0 -836466787#1 156261422#0 -693832662 -353583730#2 384643725#1 -353583726#3 -847074337 -384633624#0 415179424#1 -415179425#1 415179427 693832665 -693832664"/>
    </vehicle>
    <vehicle depart="82.99" departLane="best" id="veh52" type="veh_passenger">
        <route edges="710591535 -156261422#3 -156261422#2 -156261422#1 836466787#0 836466787#2 459551209#0 459551209#3 482209833#0 292571830 321845932#2 321845932#3 482384850#0 482384850#1-AddedOnRampEdge 482384850#1 351850682#0 351850682#1"/>
    </vehicle>
    <vehicle depart="84.59" departLane="best" id="veh53" type="veh_passenger">
        <route edges="76510933#4 -76510933#4 -76510933#3 -865229405 -170065299#0 76510937#1 170065517#0 170065517#2 170065517#3 170065517#5 820373194#0 482209833#0 292571830 321845932#2 321845932#3 482384850#0 482384850#1-AddedOnRampEdge 482384850#1 482384850#2 338595767"/>
    </vehicle>
    <vehicle depart="89.37" departLane="best" id="veh56" type="veh_passenger">
        <route edges="824116557 824116556 157373201#0 157373201#0-AddedOffRampEdge 157373199 25047032#1-AddedOnRampEdge 25047032#1 824116558 824116559#0 25053626#0 25053626#0-AddedOffRampEdge 25053626#1 824750037 185563494#0 185563494#1 824116554 824116555#0 824116555#2-AddedOnRampEdge 824116555#2 824116555#2-AddedOffRampEdge 482384843 482384842#1-AddedOnRampEdge 482384842#1 25053183#1 820373196#0 820373198#0"/>
    </vehicle>
    <vehicle depart="90.97" departLane="best" id="veh57" type="veh_passenger">
        <route edges="156966544 -156966544 -53271856#4 -53271856#3 -53271856#2 -53271856#1 25047032#0 25047032#1-AddedOnRampEdge 25047032#1 824116558 824116559#0 25053626#0 25053626#0-AddedOffRampEdge 25053626#1 824750037 338595771#1 824116546 824116547 824116548 824116545 153225678#0 153225678#1-AddedOnRampEdge 153225678#1 153225678#2 153225678#3 -384643705#7 -384643705#4 -384643705#3 -384643705#1 -384643705#0 -353583731 -384643725#1 -25505423#9"/>
    </vehicle>
    <vehicle depart="92.57" departLane="best" id="veh58" type="veh_passenger">
        <route edges="824116557 824116556 157373201#0 157373201#0-AddedOffRampEdge 157373199 25047032#1-AddedOnRampEdge 25047032#1 824116558 824116559#0 25053626#0 25053626#0-AddedOffRampEdge 847086239 25047974#1 25047974#2 25047974#3 25047974#4 25047974#5 25047974#6 25047974#7 25047974#8 459492913#0 459492913#2 459492913#3 459492913#4 825786399#0 825786399#1 825786399#2 786133405 825786398#0 825786398#1 752225466#0 156966529#0 156966536-AddedOnRampEdge 156966536 25046707#0 25046707#1 25046707#1-AddedOffRampEdge 25046778 829639198-AddedOnRampEdge"/>
    </vehicle>
    <vehicle depart="94.16" departLane="best" id="veh59" type="veh_passenger">
        <route edges="-383596742#0 353583724#0 384643724#1 383596742#2 353583723 353583728#1 820340552#1 820340552#2 459551209#0 459551209#3 482209833#0 292571830 321845932#2 321845932#3 292576585#0"/>
    </vehicle>
    <vehicle depart="97.35" departLane="best" id="veh61" type="veh_passenger">
        <route edges="710591541 -710591541 710591539 -710591537 710591535 -156261422#3 -156261422#2 -156261422#1 836466787#0 836466787#2 459551209#0 459551209#3 482209830#0 300813736#0 300813736#2 820345539#3 820345543 820345542#0 -156261482#12 -156261482#9 -156261482#8 -156261482#6 -156261482#5 -156261482#4 -156261482#2 -156261482#1 61232355#0 61232355#1 61232355#2 61232355#3 61232355#4 -61232355#4"/>
    </vehicle>
    <vehicle depart="98.95" departLane="best" id="veh62" type="veh_passenger">
        <route edges="25053863 824116553 824116557 824116556 157373201#0 157373201#0-AddedOffRampEdge 157373199 25047032#1-AddedOnRampEdge 25047032#1 824116558 824116559#0 25053626#0 25053626#0-AddedOffRampEdge 25053626#1 824750037 338595771#1 824116546 824116547 824116548 824116545 153225678#0 153225678#1-AddedOnRampEdge 153225678#1 156261361#0 156261361#2 415179427 -383596743 383596743"/>
    </vehicle>
    <vehicle depart="100.55" departLane="best" id="veh63" type="veh_passenger">
        <route edges="153225678#3 820340552#0 820340552#1 820340552#2 459551209#0 459551209#3 482209831#0 482209831#2 459551208#1 820373195 820373196#0 820373198#0 825786415 157059855 824116549#0 824116550#0 847086240 185563494#1 824116554 824116555#0 824116555#2-AddedOnRampEdge"/>
    </vehicle>
    <vehicle depart="102.14" departLane="best" id="veh64" type="veh_passenger">
        <route edges="25047032#0 25047032#1-AddedOnRampEdge 25047032#1 824116558 824116559#0 25053626#0 25053626#0-AddedOffRampEdge 847086239 25047974#1 25047974#2 847059594 -847059594"/>
    </vehicle>
    <vehicle depart="103.74" departLane="best" id="veh65" type="veh_passenger">
        <route edges="338595769#0 157063985#0 -847086238#0 338595767 338595771#1 824116546 824116547 824116548 824116545 153225678#0 153225678#1-AddedOnRampEdge 153225678#1 153225678#2 153225678#3 820340552#0 820340552#1 820340552#2 459551209#0 459551209#3 482209830#0 300813736#0 -170065517#9 -170065517#4 -170065517#2 859507744#0 -688591738#2 688591738#2"/>
    </vehicle>
    <vehicle depart="106.93" departLane="best" id="veh67" type="veh_passenger">
        <route edges="879999460 -879999460 -459492908#1 -459492908#0 459492912#1 825786400 459492917#1 157059852 481971013#1-AddedOnRampEdge 481971013#1 481971013#5-AddedOnRampEdge 481971013#5"/>
    </vehicle>
    <vehicle depart="108.53" departLane="best" id="veh68" type="veh_passenger">
        <route edges="25047974#4 25047974#5 25047974#6 25047974#7 25047974#8 459492917#1 825786410 153225678#0 153225678#1-AddedOnRampEdge 153225678#1 153225678#2 153225678#3 820340552#0 820340552#1 820340552#2 459551209#0 459551209#3 482209830#0 300813736#0"/>
    </vehicle>
    <vehicle depart="110.12" departLane="best" id="veh69" type="veh_passenger">
        <route edges="-552779154#4 552779154#3 552779154#5 157063979 25053863 824116553 824116557 824116556 157373201#0 157373201#0-AddedOffRampEdge 157373201#3 758274454 708155016#2 708155016#3 -154579511#5 -154579511#4 -865054790"/>
    </vehicle>
    <vehicle depart="111.72" departLane="best" id="veh70" type="veh_passenger">
        <route edges="157373209#0 157373209#2 756119203 25047032#0 25047032#1-AddedOnRampEdge 25047032#1 824116558 824116559#0 25053626#0 25053626#0-AddedOffRampEdge 847086239 25047974#1 25047974#2 25047974#3 25047974#4 25047974#5 25047974#6 25047974#7 25047974#8 459492913#0 459492913#2 459492913#3"/>
    </vehicle>
    <vehicle depart="113.31" departLane="best" id="veh71" type="veh_passenger">
        <route edges="-865094539#1 865094539#1 825786397#1 752225467 459492912#0 459492912#1 825786400 459492917#1 825786410 153225678#0 153225678#1-AddedOnRampEdge 153225678#1 153225678#2 153225678#3 820340552#0 820340552#1 820340552#2 459551209#0 459551209#3 482209833#0 292571830 859509334#0 859509334#1 -859509334#1"/>
    </vehicle>
    <vehicle depart="114.91" departLane="best" id="veh72" type="veh_passenger">
        <route edges="824116552#0 -847086238#2 -847086238#1 -847086238#0 338595767 338595771#1 824116546 824116547 824116548 824116545 153225678#0 153225678#1-AddedOnRampEdge 153225678#1 153225678#2 153225678#3 820340552#0 820340552#1 820340552#2 -836466787#4 -340089692#2"/>
    </vehicle>
    <vehicle depart="116.51" departLane="best" id="veh73" type="veh_passenger">
        <route edges="-865196560#2 -809900342#1 -809900342#0 25047974#6 25047974#7 25047974#8 459492916#0 459492916#0-AddedOffRampEdge 824116544 338595769#0 157063985#0 157063985#1 -552779154#5 -454195086#2 -351850681#1 153225687#2 153225687#2-AddedOffRampEdge 482384844"/>
    </vehicle>
    <vehicle depart="118.10" departLane="best" id="veh74" type="veh_passenger">
        <route edges="-847059595 25047974#2 25047974#3 25047974#4 25047974#5 25047974#6 25047974#7 25047974#8 459492917#1 825786410 153225678#0 153225678#1-AddedOnRampEdge 153225678#1 153225678#2 153225678#3 820340552#0 820340552#1 820340552#2 459551209#0 459551209#3 482209830#0 300813736#0 300813736#2 -156261483#9 -156261483#7 -156261483#6 -156261483#5 -156261483#4 -192166622#0 -61232366#3 -61232366#0"/>
    </vehicle>
    <vehicle depart="119.70" departLane="best" id="veh75" type="veh_passenger">
        <route edges="825786432 825786433#0 825786433#2 825786433#7 820373193 820373194#0 482209833#0 292571830 321845932#2 482384845 482384848#1 45033613#0 45033613#2"/>
    </vehicle>
    <vehicle depart="121.29" departLane="best" id="veh76" type="veh_passenger">
        <route edges="25053655#0-AddedOffRampEdge 825786414 821785869#0 821785867 9168676 824116549#0 824116550#0 824750039#1 338595769#0 338595769#1 824116552#0 824116552#1 824116552#2 824116553 824116557 -783785001#7 783785004#0"/>
    </vehicle>
    <vehicle depart="122.89" departLane="best" id="veh77" type="veh_passenger">
        <route edges="820340552#2 459551209#0 459551209#3 482209831#0 482209831#2 459551208#1 820373195 820373196#0 820373198#0 825786415 157059855 824116549#0 824116550#0 824750039#1 338595769#0 338595769#1 824116552#0 824116552#1 824116552#2 824116553 824116557 -783785001#7 -783785001#6 -783785001#5 -783785001#3 -783785001#2 -783785001#1 -783785580 -783785002#1"/>
    </vehicle>
    <vehicle depart="124.49" departLane="best" id="veh78" type="veh_passenger">
        <route edges="-384643723#0 25505423#2 25505423#4 25505423#5 25505423#8 353583730#0 595984940#1 -156261422#1 836466787#0 836466787#2 459551209#0 459551209#3 482209831#0 482209831#2 459551208#1 820373195 820373196#0 820373198#0 825786415 825786416 481971011#0 481971011#1-AddedOnRampEdge 481971011#1 459492913#0 459492913#2 459492913#3 459492913#4 825786399#0 825786399#1 825786399#2 786133405 825786398#0 825786398#1 752225466#0 156966529#0 156966536-AddedOnRampEdge 156966536 25046707#0 25046707#1 25046707#1-AddedOffRampEdge 25046778"/>
    </vehicle>
    <vehicle depart="126.08" departLane="best" id="veh79" type="veh_passenger">
        <route edges="25047032#0 25047032#1-AddedOnRampEdge 25047032#1 824116558 824116559#0 25053626#0"/>
    </vehicle>
    <vehicle depart="127.68" departLane="best" id="veh80" type="veh_passenger">
        <route edges="618739072#2 618739071 618739073#0 618739073#1 -847074344 25047974#8 459492916#0 459492916#0-AddedOffRampEdge 824116544 185563494#0 185563494#1 824116554 824116555#0 824116555#2-AddedOnRampEdge 824116555#2 824116555#2-AddedOffRampEdge 824116555#5 482384850#0"/>
    </vehicle>
    <vehicle depart="129.27" departLane="best" id="veh81" type="veh_passenger">
        <route edges="865196563#3 865196560#0 -809900342#1 -809900342#0 25047974#6 25047974#7 25047974#8 459492917#1 825786410 153225678#0 153225678#1-AddedOnRampEdge 153225678#1 156261361#0 -384633624#3 -384633624#2 -384633624#0 -415179424#0"/>
    </vehicle>
    <vehicle depart="132.47" departLane="best" id="veh83" type="veh_passenger">
        <route edges="824116552#2 824116553 824116557 824116556 157373201#0 157373201#0-AddedOffRampEdge 157373199 25047032#1-AddedOnRampEdge 25047032#1 824116558 824116559#0 25053626#0 25053626#0-AddedOffRampEdge 25053626#1 824750037 338595771#1 824116546 824116547 824116548 824116545 153225678#0 153225678#1-AddedOnRampEdge 153225678#1 153225678#2 153225678#3 820340552#0 820340552#1 820340552#2 -836466787#4 -836466787#1 156261422#0 156261422#2 156261422#3 156261422#4 156261422#5 -294808467#6 880002257 -880002257"/>
    </vehicle>
    <vehicle depart="134.06" departLane="best" id="veh84" type="veh_passenger">
        <route edges="-783785001#5 783785001#5 783785001#6 783785001#7 824116556 157373201#0 157373201#0-AddedOffRampEdge 157373199 25047032#1-AddedOnRampEdge 25047032#1 824116558 824116559#0 25053626#0 25053626#0-AddedOffRampEdge 847086239 25047974#1 25047974#2 25047974#3 25047974#4 25047974#5"/>
    </vehicle>
    <vehicle depart="137.25" departLane="best" id="veh86" type="veh_passenger">
        <route edges="-879999460 -459492908#1 -459492908#0 459492912#1 825786400"/>
    </vehicle>
    <vehicle depart="138.85" departLane="best" id="veh87" type="veh_passenger">
        <route edges="353583726#2 353583726#3 353583731 384643705#0 384643705#1 384643705#3 384643705#4 384643705#5 820340552#0 820340552#1 820340552#2 459551209#0 459551209#3 482209833#0 -836466791#6 -836466791#3 -836466791#2 -836466791#1 25053191#0 25053191#1 825786433#2 -25053188#2"/>
    </vehicle>
    <vehicle depart="140.45" departLane="best" id="veh88" type="veh_passenger">
        <route edges="859511857#0 -859511857#0 25053191#1 825786433#2 825786433#7 820373193 820373194#0 482209831#0 482209831#2 459551208#1 820373195 820373196#0 820373198#0 825786415 825786416 481971011#0 481971011#1-AddedOnRampEdge 481971011#1 459492917#1 825786410"/>
    </vehicle>
    <vehicle depart="142.04" departLane="best" id="veh89" type="veh_passenger">
        <route edges="824116548 824116545 9168676 824116549#0 824116550#0 824750039#1 338595769#0 338595769#1 824116552#0 824116552#1 824116552#2 824116553 824116557 824116556 157373201#0 157373201#0-AddedOffRampEdge 157373201#3 758274454 708155016#2 708155016#3 708155016#4 708155016#6 708155016#7 -708155016#7"/>
    </vehicle>
    <vehicle depart="148.43" departLane="best" id="veh93" type="veh_passenger">
        <route edges="153225678#3 820340552#0 820340552#1 820340552#2 459551209#0 459551209#3 482209831#0 482209831#2 459551208#1 820373195 820373196#0 820373198#0 825786415 157059855 824116549#0 824116550#0 824750039#1 338595769#0 338595769#1 824116552#0 824116552#1 824116552#2 824116553 824116557 -783785001#7 -783785001#6 -783785003#1 783785003#1"/>
    </vehicle>
    <vehicle depart="151.62" departLane="best" id="veh95" type="veh_passenger">
        <route edges="847059593 -847059593 25047974#5 25047974#6 25047974#7 25047974#8 459492917#1 825786410 153225678#0 153225678#1-AddedOnRampEdge 153225678#1 156261361#0 156261361#2 880002255"/>
    </vehicle>
    <vehicle depart="153.21" departLane="best" id="veh96" type="veh_passenger">
        <route edges="383596742#2 353583723 353583728#1 820340552#1 820340552#2 459551209#0 459551209#3 482209831#0 482209831#2 459551208#1 820373195 820373196#0 820373198#0 825786415 825786416 481971011#0 481971011#1-AddedOnRampEdge 481971011#1 459492913#0 459492913#2 618739069#0 618739070"/>
    </vehicle>
    <vehicle depart="154.81" departLane="best" id="veh97" type="veh_passenger">
        <route edges="-693832664 294808467#1 294808467#2 294808467#3 294808467#4 294808467#6 -156261422#5 -156261422#4 -156261422#3 -156261422#2 -156261422#1 836466787#0 836466787#2 459551209#0 459551209#3 482209831#0 482209831#2 459551208#1 820373195 820373196#0 820373198#0 825786415 825786416 481971011#0 481971011#1-AddedOnRampEdge 481971011#1 459492913#0 459492913#2 459492913#3 459492913#4 825786399#0 825786399#1 825786399#2 786133405 825786398#0 825786398#1 752225466#0 156966529#0"/>
    </vehicle>
    <vehicle depart="156.41" departLane="best" id="veh98" type="veh_passenger">
        <route edges="859511856 -859511857#0 25053191#1 825786433#2 825786433#7 820373193 820373194#0 482209831#0 482209831#2 459551208#1 820373195 820373196#0 820373198#0 825786415 825786416 481971011#0 481971011#1-AddedOnRampEdge 481971011#1 459492913#0 459492913#2 459492913#3 459492913#4 825786399#0 825786399#1 825786399#2 459492912#0 459492912#1"/>
    </vehicle>
    <vehicle depart="158.00" departLane="best" id="veh99" type="veh_passenger">
        <route edges="338595771#1 824116546 824116547 824116548 824116545 9168676 824116549#0 824116550#0 824750039#1 338595769#0 338595769#1 824116552#0 824116552#1 824116552#2 824116553 824116557 824116556 157373201#0 157373201#0-AddedOffRampEdge 157373201#3 758274454 708155016#2 708155016#3"/>
    </vehicle>
    <vehicle depart="159.60" departLane="best" id="veh100" type="veh_passenger">
        <route edges="-25053191#0 836466791#1 836466791#2 836466791#3 836466791#4 25053183#1 820373196#0 820373198#0 825786415 825786416 481971011#0 481971011#1-AddedOnRampEdge 481971011#1 459492913#0 459492913#2"/>
    </vehicle>
    <vehicle depart="161.19" departLane="best" id="veh101" type="veh_passenger">
        <route edges="300803484 480596365 480596367#0 480596367#1 480596367#3 825786383#0 825786383#2 825786397#0 825786397#1 752225467 459492912#0 459492912#1 825786400 459492917#1 825786410 9168676 824116549#0 824116550#0"/>
    </vehicle>
    <vehicle depart="162.79" departLane="best" id="veh102" type="veh_passenger">
        <route edges="-693832673#0 693832673#0 693832673#1 -450629007 -76510933#3 -865229405 -170065299#0 76510937#1 170065517#0 170065517#2 170065517#3 170065517#5 820373194#0 482209833#0 292571830 321845932#2 321845932#3 482384850#0 482384850#1-AddedOnRampEdge 482384850#1 482384850#2 847086238#0"/>
    </vehicle>
    <vehicle depart="164.39" departLane="best" id="veh103" type="veh_passenger">