<?xml version="1.0" encoding="UTF-8"?>

<!-- generated on 12/30/20 13:55:56 by Eclipse SUMO netedit Version 1.6.0
<configuration xmlns:xsi="http://www.w3.org/2001/XMLSchema-instance" xsi:noNamespaceSchemaLocation="http://sumo.dlr.de/xsd/netconvertConfiguration.xsd">

    <input>
        <sumo-net-file value="C:\Users\sinad\OneDrive\Documents\ENG%204.1\Sumo\map_grid_lock_add2TL_copy_newTLS.net.xml"/>
    </input>

    <output>
        <output-file value="C:\Users\sinad\OneDrive\Documents\ENG%204.1\Sumo\map_grid_lock_add2TL_copy_newTLS.net.xml"/>
        <output.street-names value="true"/>
    </output>

    <processing>
        <geometry.min-radius.fix.railways value="false"/>
        <geometry.max-grade.fix value="false"/>
        <offset.disable-normalization value="true"/>
        <lefthand value="true"/>
    </processing>

    <junctions>
        <no-turnarounds value="true"/>
        <junctions.corner-detail value="5"/>
        <junctions.limit-turn-speed value="5.5"/>
        <rectangular-lane-cut value="false"/>
    </junctions>

    <pedestrian>
        <walkingareas value="false"/>
    </pedestrian>

    <netedit>
        <route-files value="C:\Users\sinad\OneDrive\Documents\ENG%204.1\Sumo\initial01.rou.xml"/>
    </netedit>

    <report>
        <aggregate-warnings value="5"/>
    </report>

</configuration>
-->

<routes xmlns:xsi="http://www.w3.org/2001/XMLSchema-instance" xsi:noNamespaceSchemaLocation="http://sumo.dlr.de/xsd/routes_file.xsd">
    <vType accel="2.0" decel="2.5" id="Car" length="4.62" minGap="2.37" maxSpeed="12.5" sigma="0.7"/>
	
	<route edges="-27702346#2 156261350#0 27702347#0 27702347#4 27702347#6 459551209#0 459551209#3 482209833#0 482209833#1" color="yellow" id="route_0"/>
    <route edges="328942767#17 27702347#0 27702347#4 27702347#6 459551209#0 459551209#3 482209833#0 482209833#1" color="yellow" id="route_1"/>
    <route edges="459551209#0 459551209#3 482209830#0 300813736#0 300813736#2" color="yellow" id="route_2"/>
    <route edges="459551209#0 459551209#3 482209830#0 -453962283#3 -693832668#3 -693832668#2" color="yellow" id="route_3"/>
	
	<flow begin="0" end="14400" departPos="free" departLane="best" id="0" vehsPerHour="100.0" route="route_0" type="Car"/>
	<flow begin="0" end="14400" departPos="free" departLane="best" id="1" vehsPerHour="100.0" route="route_1" type="Car"/>
	<flow begin="0" end="14400" departPos="free" departLane="best" id="2" vehsPerHour="100.0" route="route_2" type="Car"/>
	<flow begin="0" end="14400" departPos="free" departLane="best" id="3" vehsPerHour="100.0" route="route_3" type="Car"/>
</routes>
