<?xml version="1.0" encoding="UTF-8"?>

<!-- generated on 07/24/20 16:06:50 by Eclipse SUMO netedit Version 1.6.0
<configuration xmlns:xsi="http://www.w3.org/2001/XMLSchema-instance" xsi:noNamespaceSchemaLocation="http://sumo.dlr.de/xsd/netconvertConfiguration.xsd">

    <input>
        <sumo-net-file value="C:\Users\sen_s\Sumo\2020-07-17-13-25-23\osm_draft4_additional.net.xml"/>
    </input>

    <output>
        <output-file value="C:\Users\sen_s\Sumo\2020-07-17-13-25-23\osm_draft4_additional.net.xml"/>
        <output.street-names value="true"/>
    </output>

    <processing>
        <geometry.min-radius.fix.railways value="false"/>
        <geometry.max-grade.fix value="false"/>
        <offset.disable-normalization value="true"/>
        <lefthand value="true"/>
    </processing>

    <junctions>
        <no-turnarounds value="true"/>
        <junctions.corner-detail value="5"/>
        <junctions.limit-turn-speed value="5.5"/>
        <rectangular-lane-cut value="false"/>
    </junctions>

    <pedestrian>
        <walkingareas value="false"/>
    </pedestrian>

    <netedit>
        <additional-files value="C:\Users\sen_s\Sumo\2020-07-17-13-25-23\busstop_2.add.xml"/>
        <route-files value="C:\Users\sen_s\Sumo\2020-07-17-13-25-23\draft7_Add.rou.xml"/>
    </netedit>

    <report>
        <aggregate-warnings value="5"/>
    </report>

</configuration>
-->

<additional xmlns:xsi="http://www.w3.org/2001/XMLSchema-instance" xsi:noNamespaceSchemaLocation="http://sumo.dlr.de/xsd/additional_file.xsd">
    <busStop id="busStop_751454884#3_0_3" lane="751454884#3_0" startPos="62.53" endPos="65.53"/>
    <busStop id="busStop_824116560#2_0_2" lane="824116560#2_0" startPos="3.16" endPos="4.16"/>
    <busStop id="busStop_824456409#1_0_1" lane="824456409#1_0" startPos="68.67" endPos="71.67"/>
    <busStop id="busStop_824456410#0_0_1" lane="824456410#0_0" startPos="35.87" endPos="36.87"/>
</additional>
