<?xml version="1.0" encoding="UTF-8"?>

<!-- generated on 07/20/20 14:08:45 by Eclipse SUMO netedit Version 1.6.0
<configuration xmlns:xsi="http://www.w3.org/2001/XMLSchema-instance" xsi:noNamespaceSchemaLocation="http://sumo.dlr.de/xsd/netconvertConfiguration.xsd">

    <input>
        <sumo-net-file value="C:\Users\sen_s\Sumo\2020-07-17-13-25-23\osm_draft3_route.net.xml"/>
    </input>

    <output>
        <output-file value="C:\Users\sen_s\Sumo\2020-07-17-13-25-23\osm_draft3_route.net.xml"/>
        <output.street-names value="true"/>
    </output>

    <processing>
        <geometry.min-radius.fix.railways value="false"/>
        <geometry.max-grade.fix value="false"/>
        <offset.disable-normalization value="true"/>
        <lefthand value="true"/>
    </processing>

    <junctions>
        <no-turnarounds value="true"/>
        <junctions.corner-detail value="5"/>
        <junctions.limit-turn-speed value="5.5"/>
        <rectangular-lane-cut value="false"/>
    </junctions>

    <pedestrian>
        <walkingareas value="false"/>
    </pedestrian>

    <netedit>
        <route-files value="C:\Users\sen_s\Sumo\2020-07-03-14-47-20\draft3_route.rou.xml"/>
    </netedit>

    <report>
        <aggregate-warnings value="5"/>
    </report>

</configuration>
-->

<routes xmlns:xsi="http://www.w3.org/2001/XMLSchema-instance" xsi:noNamespaceSchemaLocation="http://sumo.dlr.de/xsd/routes_file.xsd">
    <route edges="153225686#0 153225686#3 824456406 820349335#0 824456405#0 482404745#0 482404745#4 300825126#0 300825126#0-AddedOffRampEdge 824116561 824116561-AddedOffRampEdge 824816455 824116560#0 824116560#1 824116560#2 824116560#3 824456410#0 824456410#2 824456409#0 824456409#1 824456409#5 824456409#6 113135397#1 113135397#3 113135397#5 113135397#7 113135397#8 113135397#10 113135397#11 113135397#13 113135397#14 113135397#16 113135397#17 113135397#18 113135397#19 113135397#20 113135397#21 113135397#22 113135397#25" color="yellow" id="RamOut2Onnut"/>
    <route edges="153225686#0 153225686#3 824456406 820349335#0 824456405#0 482404745#0 482404745#4 824456408#0 824456408#2 824456408#4 -156591249#2 -156591249#0" color="yellow" id="RamOut2Suk77"/>
    <route edges="153225686#0 153225686#3 824456406 820349335#0 824456405#0 185007810#0 185007810#1 185007810#3 185007810#5" color="yellow" id="RamOut2SukIn"/>
    <route edges="153225686#0 153225686#3 824456406 820349335#0 824456405#0 482404745#0 482404745#4 300825126#0 300825126#0-AddedOffRampEdge 824116561 824116561-AddedOffRampEdge 824816455 824116560#0 824116560#1 824116560#2 824116560#3 751454885#0 751454885#2 751454885#3 751454885#5 450149632#0 450149632#2 450149632#3" color="yellow" id="RamOut2SukOut"/>
    <route edges="153225686#0 -156357477#2 185007810#3 185007810#5" color="yellow" id="RamOutSC1SukIn"/>
    <route edges="153225686#0 153225686#3 824456406 156357415#0 156357415#4 185007810#1 185007810#3 185007810#5" color="yellow" id="RamOutSC2SukIn"/>
    <route edges="153225686#0 153225686#3 824456406 820349335#0 824456404 153225684#2 153225684#4 153225684#6 153225684#7" color="yellow" id="RamOutUIn"/>
    <route edges="156591249#0.2206 156591249#1 824456407#0 824456407#2 824456407#3 824456407#6 377691430#0 153225684#0 153225684#2 153225684#4 153225684#6 153225684#7" color="yellow" id="Suk772RamIn"/>
    <route edges="156591249#0.2206 156591249#1 824456407#0 824456407#2 824456407#3 824456407#6 377691430#0 185007810#0 185007810#1 185007810#3 185007810#5" color="yellow" id="Suk772SukIn"/>
    <route edges="336620983#0 336620983#3 336620983#5 336620983#7 482404745#0 482404745#4 300825126#0 300825126#0-AddedOffRampEdge 824116561 824116561-AddedOffRampEdge 824816455 824116560#0 824116560#1 824116560#2 824116560#3 751454885#0 751454885#2 751454885#3 751454885#5 450149632#0 450149632#2 450149632#3" color="yellow" id="SukOut"/>
    <route edges="336620983#0 336620983#3 336620983#5 336620983#7 482404745#0 482404745#4 300825126#0 300825126#0-AddedOffRampEdge 824116561 824116561-AddedOffRampEdge 824816455 824116560#0 824116560#1 824116560#2 824116560#3 824456410#0 824456410#2 824456409#0 824456409#1 824456409#5 824456409#6 113135397#1 113135397#3 113135397#5 113135397#7 113135397#8 113135397#10 113135397#11 113135397#13 113135397#14 113135397#16 113135397#17 113135397#18 113135397#19 113135397#20 113135397#21 113135397#22 113135397#25" color="yellow" id="SukOut2Onnut"/>
    <route edges="336620983#0 336620983#3 336620983#5 336620983#7 153225684#0 153225684#2 153225684#4 153225684#6 153225684#7" color="yellow" id="SukOut2RamIn"/>
    <route edges="336620983#0 336620983#3 336620983#5 336620983#7 482404745#0 482404745#4 824456408#0 824456408#2 824456408#4 -156591249#2 -156591249#0" color="yellow" id="SukOut2Suk77"/>
    <route edges="336620983#0 336620983#3 336620983#5 336620983#7 482404745#0 482404745#4 300825126#0 300825126#0-AddedOffRampEdge 220429932#0 156261400 824816458#0 377691430#0 185007810#0 185007810#1 185007810#3 185007810#5" color="yellow" id="SukOutUIn"/>
    <route edges="336620983#0 336620983#3 336620983#5 336620983#7 482404745#0 482404745#4 300825126#0 300825126#0-AddedOffRampEdge 220429932#0 156261400 824816458#0 377691430#0 153225684#0 153225684#2 153225684#4 153225684#6 153225684#7" color="yellow" id="SukOutUIn2RamIn"/>
</routes>
