<?xml version="1.0" encoding="UTF-8"?>

<!-- generated on 07/20/20 14:56:05 by Eclipse SUMO netedit Version 1.6.0
<configuration xmlns:xsi="http://www.w3.org/2001/XMLSchema-instance" xsi:noNamespaceSchemaLocation="http://sumo.dlr.de/xsd/netconvertConfiguration.xsd">

    <input>
        <sumo-net-file value="C:\Users\sen_s\Sumo\2020-07-17-13-25-23\osm_draft3_route.net.xml"/>
    </input>

    <output>
        <output-file value="C:\Users\sen_s\Sumo\2020-07-17-13-25-23\osm_draft3_route.net.xml"/>
        <output.street-names value="true"/>
    </output>

    <processing>
        <geometry.min-radius.fix.railways value="false"/>
        <geometry.max-grade.fix value="false"/>
        <offset.disable-normalization value="true"/>
        <lefthand value="true"/>
    </processing>

    <junctions>
        <no-turnarounds value="true"/>
        <junctions.corner-detail value="5"/>
        <junctions.limit-turn-speed value="5.5"/>
        <rectangular-lane-cut value="false"/>
    </junctions>

    <pedestrian>
        <walkingareas value="false"/>
    </pedestrian>

    <netedit>
        <route-files value="C:\Users\sen_s\Sumo\2020-07-17-13-25-23\draft3_route_ongoing.rou.xml"/>
    </netedit>

    <report>
        <aggregate-warnings value="5"/>
    </report>

</configuration>
-->

<routes xmlns:xsi="http://www.w3.org/2001/XMLSchema-instance" xsi:noNamespaceSchemaLocation="http://sumo.dlr.de/xsd/routes_file.xsd">
	<vType accel="2.0" decel="2.5" id="Car" length="4.62" minGap="2.37" maxSpeed="12.5" sigma="0.7"/>
    <route edges="150557362 26575959 520440860 113135404 824116538#3 824116538#4 751454884#2 751454884#3 750035412#1 750035412#1-AddedOffRampEdge 113135465#0 113135465#2 113135465#5 824116560#0 824116560#1 824116560#2 824116560#3 824456410#0 824456410#2 824456409#0 824456409#1 824456409#5 824456409#6 113135397#1 113135397#3 113135397#5 113135397#7 113135397#8 113135397#10 113135397#11 113135397#13 113135397#14 113135397#16 113135397#17 113135397#18 113135397#19 113135397#20 113135397#21 113135397#22 113135397#25" color="yellow" id="HW2Onnut"/>
    <route edges="150557362 26575959 520440860 113135404 824116538#3 824116538#4 751454884#2 751454884#3 750035412#1 750035412#1-AddedOffRampEdge 824816456 156261400 824816458#0 377691430#0 153225684#0 153225684#2 153225684#4 153225684#6 153225684#7" color="yellow" id="HW2RamIn"/>
    <route edges="150557362 26575959 520440860 113135404 824116538#3 824116538#4 751454884#2 751454884#3 750035412#1 750035412#1-AddedOffRampEdge 824816456 156261400 824816458#0 824456408#0 824456408#2 824456408#4 -156591249#2 -156591249#0" color="yellow" id="HW2Suk77"/>
    <route edges="150557362 26575959 520440860 113135404 824116538#3 824116538#4 751454884#2 751454884#3 750035412#1 750035412#1-AddedOffRampEdge 824816456 156261400 824816458#0 377691430#0 185007810#0 185007810#1 185007810#3 185007810#5" color="yellow" id="HW2SukIn"/>
    <route edges="150557362 26575959 520440860 113135404 824116538#3 824116538#4 751454884#2 751454884#3 750035412#1 750035412#1-AddedOffRampEdge 113135465#0 113135465#2 113135465#5 824116560#0 824116560#1 824116560#2 824116560#3 751454885#0 751454885#2 751454885#3 751454885#5 450149632#0 450149632#2 450149632#3" color="yellow" id="HW2SukOut"/>
    <route edges="-113135397#26 -113135397#24 -113135397#21 -113135397#20 -113135397#19 -113135397#18 -113135397#17 -113135397#16 -113135397#15 -113135397#13 -113135397#12 -113135397#10 -113135397#8 -113135397#7 -113135397#6 -113135397#4 -113135397#2 -113135397#0 -824456409#5 -824456409#4 -824456409#0 156591171#0 156591171#2 750035412#1 750035412#1-AddedOffRampEdge 824816456 156261400 824816458#0 377691430#0 153225684#0 153225684#2 153225684#4 153225684#6 153225684#7" color="yellow" id="Onnut2RamIn"/>
    <route edges="-113135397#26 -113135397#24 -113135397#21 -113135397#20 -113135397#19 -113135397#18 -113135397#17 -113135397#16 -113135397#15 -113135397#13 -113135397#12 -113135397#10 -113135397#8 -113135397#7 -113135397#6 -113135397#4 -113135397#2 -113135397#0 -824456409#5 -824456409#4 -824456409#0 156591171#0 156591171#2 750035412#1 750035412#1-AddedOffRampEdge 824816456 156261400 824816458#0 824456408#0 824456408#2 824456408#4 -156591249#2 -156591249#0" color="yellow" id="Onnut2Suk77"/>
    <route edges="-113135397#26 -113135397#24 -113135397#21 -113135397#20 -113135397#19 -113135397#18 -113135397#17 -113135397#16 -113135397#15 -113135397#13 -113135397#12 -113135397#10 -113135397#8 -113135397#7 -113135397#6 -113135397#4 -113135397#2 -113135397#0 -824456409#5 -824456409#4 -824456409#0 156591171#0 156591171#2 750035412#1 750035412#1-AddedOffRampEdge 824816456 156261400 824816458#0 377691430#0 185007810#0 185007810#1 185007810#3 185007810#5" color="yellow" id="Onnut2SukIn"/>
    <route edges="-113135397#26 -113135397#24 -113135397#21 -113135397#20 -113135397#19 -113135397#18 -113135397#17 -113135397#16 -113135397#15 -113135397#13 -113135397#12 -113135397#10 -113135397#8 -113135397#7 -113135397#6 -113135397#4 -113135397#2 -113135397#0 -824456409#5 -824456409#4 -824456409#0 156591171#0 156591171#2 751454885#0 751454885#2 751454885#3 751454885#5 450149632#0 450149632#2 450149632#3" color="yellow" id="Onnut2SukOut"/>
    <route edges="-113135397#26 -113135397#24 -113135397#21 -113135397#20 -113135397#19 -113135397#18 -113135397#17 -113135397#16 -113135397#15 -113135397#13 -113135397#12 -113135397#10 -113135397#8 -113135397#7 -113135397#6 -113135397#4 -113135397#2 -113135397#0 -824456409#5 -824456409#4 -824456409#0 156591171#0 156591171#2 750035412#1 750035412#1-AddedOffRampEdge 113135465#0 113135465#2 113135465#5 824116560#0 824116560#1 824116560#2 824116560#3 824456410#0 824456410#2 824456409#0 824456409#1 824456409#5 824456409#6 113135397#1 113135397#3 113135397#5 113135397#7 113135397#8 113135397#10 113135397#11 113135397#13 113135397#14 113135397#16 113135397#17 113135397#18 113135397#19 113135397#20 113135397#21 113135397#22 113135397#25" color="yellow" id="OnnutU"/>
    <route edges="153225686#0 153225686#3 824456406 820349335#0 824456405#0 482404745#0 482404745#4 300825126#0 300825126#0-AddedOffRampEdge 824116561 824116561-AddedOffRampEdge 824816455 824116560#0 824116560#1 824116560#2 824116560#3 824456410#0 824456410#2 824456409#0 824456409#1 824456409#5 824456409#6 113135397#1 113135397#3 113135397#5 113135397#7 113135397#8 113135397#10 113135397#11 113135397#13 113135397#14 113135397#16 113135397#17 113135397#18 113135397#19 113135397#20 113135397#21 113135397#22 113135397#25" color="yellow" id="RamOut2Onnut"/>
    <route edges="153225686#0 153225686#3 824456406 820349335#0 824456405#0 482404745#0 482404745#4 824456408#0 824456408#2 824456408#4 -156591249#2 -156591249#0" color="yellow" id="RamOut2Suk77"/>
    <route edges="153225686#0 153225686#3 824456406 820349335#0 824456405#0 185007810#0 185007810#1 185007810#3 185007810#5" color="yellow" id="RamOut2SukIn"/>
    <route edges="153225686#0 153225686#3 824456406 820349335#0 824456405#0 482404745#0 482404745#4 300825126#0 300825126#0-AddedOffRampEdge 824116561 824116561-AddedOffRampEdge 824816455 824116560#0 824116560#1 824116560#2 824116560#3 751454885#0 751454885#2 751454885#3 751454885#5 450149632#0 450149632#2 450149632#3" color="yellow" id="RamOut2SukOut"/>
    <route edges="153225686#0 -156357477#2 185007810#3 185007810#5" color="yellow" id="RamOutSC1SukIn"/>
    <route edges="153225686#0 153225686#3 824456406 156357415#0 156357415#4 185007810#1 185007810#3 185007810#5" color="yellow" id="RamOutSC2SukIn"/>
    <route edges="153225686#0 153225686#3 824456406 820349335#0 824456404 153225684#2 153225684#4 153225684#6 153225684#7" color="yellow" id="RamOutUIn"/>
    <route edges="156591249#0.2206 156591249#1 824456407#0 824456407#2 824456407#3 824456407#6 300825126#0 300825126#0-AddedOffRampEdge 824116561 824116561-AddedOffRampEdge 824816455 824116560#0 824116560#1 824116560#2 824116560#3 824456410#0 824456410#2 824456409#0 824456409#1 824456409#5 824456409#6 113135397#1 113135397#3 113135397#5 113135397#7 113135397#8 113135397#10 113135397#11 113135397#13 113135397#14 113135397#16 113135397#17 113135397#18 113135397#19 113135397#20 113135397#21 113135397#22 113135397#25" color="yellow" id="Suk772Onnut"/>
    <route edges="156591249#0.2206 156591249#1 824456407#0 824456407#2 824456407#3 824456407#6 377691430#0 153225684#0 153225684#2 153225684#4 153225684#6 153225684#7" color="yellow" id="Suk772RamIn"/>
    <route edges="156591249#0.2206 156591249#1 824456407#0 824456407#2 824456407#3 824456407#6 377691430#0 185007810#0 185007810#1 185007810#3 185007810#5" color="yellow" id="Suk772SukIn"/>
    <route edges="156591249#0.2206 156591249#1 824456407#0 824456407#2 824456407#3 824456407#6 300825126#0 300825126#0-AddedOffRampEdge 824116561 824116561-AddedOffRampEdge 824816455 824116560#0 824116560#1 824116560#2 824116560#3 751454885#0 751454885#2 751454885#3 751454885#5 450149632#0 450149632#2 450149632#3" color="yellow" id="Suk772SukOut"/>
    <route edges="751455690#0 751454884#0 751454884#1 751454884#2 751454884#3 750035412#1 750035412#1-AddedOffRampEdge 824816456 156261400 824816458#0 377691430#0 185007810#0 185007810#1 185007810#3 185007810#5" color="yellow" id="SukIn"/>
    <route edges="751455690#0 751454884#0 751454884#1 751454884#2 751454884#3 750035412#1 750035412#1-AddedOffRampEdge 113135465#0 113135465#2 113135465#5 824116560#0 824116560#1 824116560#2 824116560#3 824456410#0 824456410#2 824456409#0 824456409#1 824456409#5 824456409#6 113135397#1 113135397#3 113135397#5 113135397#7 113135397#8 113135397#10 113135397#11 113135397#13 113135397#14 113135397#16 113135397#17 113135397#18 113135397#19 113135397#20 113135397#21 113135397#22 113135397#25" color="yellow" id="SukIn2Onnut"/>
    <route edges="751455690#0 751454884#0 751454884#1 751454884#2 751454884#3 750035412#1 750035412#1-AddedOffRampEdge 824816456 156261400 824816458#0 377691430#0 153225684#0 153225684#2 153225684#4 153225684#6 153225684#7" color="yellow" id="SukIn2RamIn"/>
    <route edges="751455690#0 751454884#0 751454884#1 751454884#2 751454884#3 750035412#1 750035412#1-AddedOffRampEdge 824816456 156261400 824816458#0 824456408#0 824456408#2 824456408#4 -156591249#2 -156591249#0" color="yellow" id="SukIn2Suk77"/>
    <route edges="751455690#0 751454884#0 751454884#1 751454884#2 751454884#3 750035412#1 750035412#1-AddedOffRampEdge 113135465#0 113135465#2 113135465#5 824116560#0 824116560#1 824116560#2 824116560#3 751454885#0 751454885#2 751454885#3 751454885#5 450149632#0 450149632#2 450149632#3" color="yellow" id="SukInUOut"/>
    <route edges="336620983#0 336620983#3 336620983#5 336620983#7 482404745#0 482404745#4 300825126#0 300825126#0-AddedOffRampEdge 824116561 824116561-AddedOffRampEdge 824816455 824116560#0 824116560#1 824116560#2 824116560#3 751454885#0 751454885#2 751454885#3 751454885#5 450149632#0 450149632#2 450149632#3" color="yellow" id="SukOut"/>
    <route edges="336620983#0 336620983#3 336620983#5 336620983#7 482404745#0 482404745#4 300825126#0 300825126#0-AddedOffRampEdge 824116561 824116561-AddedOffRampEdge 28504758 28504780#1-AddedOnRampEdge" color="yellow" id="SukOut2HW"/>
    <route edges="336620983#0 336620983#3 336620983#5 336620983#7 482404745#0 482404745#4 300825126#0 300825126#0-AddedOffRampEdge 824116561 824116561-AddedOffRampEdge 824816455 824116560#0 824116560#1 824116560#2 824116560#3 824456410#0 824456410#2 824456409#0 824456409#1 824456409#5 824456409#6 113135397#1 113135397#3 113135397#5 113135397#7 113135397#8 113135397#10 113135397#11 113135397#13 113135397#14 113135397#16 113135397#17 113135397#18 113135397#19 113135397#20 113135397#21 113135397#22 113135397#25" color="yellow" id="SukOut2Onnut"/>
    <route edges="336620983#0 336620983#3 336620983#5 336620983#7 153225684#0 153225684#2 153225684#4 153225684#6 153225684#7" color="yellow" id="SukOut2RamIn"/>
    <route edges="336620983#0 336620983#3 336620983#5 336620983#7 482404745#0 482404745#4 824456408#0 824456408#2 824456408#4 -156591249#2 -156591249#0" color="yellow" id="SukOut2Suk77"/>
    <route edges="336620983#0 336620983#3 336620983#5 336620983#7 482404745#0 482404745#4 300825126#0 300825126#0-AddedOffRampEdge 220429932#0 156261400 824816458#0 377691430#0 185007810#0 185007810#1 185007810#3 185007810#5" color="yellow" id="SukOutUIn"/>
    <route edges="336620983#0 336620983#3 336620983#5 336620983#7 482404745#0 482404745#4 300825126#0 300825126#0-AddedOffRampEdge 220429932#0 156261400 824816458#0 377691430#0 153225684#0 153225684#2 153225684#4 153225684#6 153225684#7" color="yellow" id="SukOutUIn2RamIn"/>
    <flow begin="0" end="10000" departPos="free" departLane="best" id="1" vehsPerHour="1000.0" route="RamOut2Onnut" type="Car"/>
    <flow begin="0" end="10000" departPos="free" departLane="best" id="2" vehsPerHour="500.0" route="Suk772Onnut" type="Car"/>
    <flow begin="0" end="10000" departPos="free" departLane="best" id="3" vehsPerHour="2000.0" route="SukOut2Onnut" type="Car"/>
    <flow begin="0" end="10000" departPos="free" departLane="best" id="4" vehsPerHour="2500.0" route="SukIn2Onnut" type="Car"/>
    <flow begin="0" end="10000" departPos="free" departLane="best" id="5" vehsPerHour="500.0" route="SukInUOut" type="Car"/>
    <flow begin="0" end="10000" departPos="free" departLane="best" id="6" vehsPerHour="500.0" route="SukIn2RamIn" type="Car"/>
    <flow begin="0" end="10000" departPos="free" departLane="best" id="7" vehsPerHour="500.0" route="SukIn2Suk77" type="Car"/>
    <flow begin="0" end="10000" departPos="free" departLane="best" id="8" vehsPerHour="1000.0" route="SukIn" type="Car"/>
    <flow begin="0" end="10000" departPos="free" departLane="best" id="9" vehsPerHour="3000.0" route="SukOut" type="Car"/>
    <flow begin="0" end="10000" departPos="free" departLane="best" id="10" vehsPerHour="2000.0" route="RamOut2SukOut" type="Car"/>
    <flow begin="0" end="10000" departPos="free" departLane="best" id="11" vehsPerHour="500.0" route="Suk772SukOut" type="Car"/>
    <flow begin="0" end="10000" departPos="free" departLane="best" id="12" vehsPerHour="80.0" route="HW2Onnut" type="Car"/>
    <flow begin="0" end="10000" departPos="free" departLane="best" id="13" vehsPerHour="80.0" route="HW2RamIn" type="Car"/>
    <flow begin="0" end="10000" departPos="free" departLane="best" id="14" vehsPerHour="80.0" route="HW2SukIn" type="Car"/>
    <flow begin="0" end="10000" departPos="free" departLane="best" id="15" vehsPerHour="80.0" route="HW2SukOut" type="Car"/>
</routes>
