<?xml version="1.0" encoding="UTF-8"?>

<!-- generated on 07/17/20 13:25:37 by Eclipse SUMO duarouter Version 1.6.0
<configuration xmlns:xsi="http://www.w3.org/2001/XMLSchema-instance" xsi:noNamespaceSchemaLocation="http://sumo.dlr.de/xsd/duarouterConfiguration.xsd">

    <input>
        <net-file value="C:\Users\sen_s\Sumo\2020-07-17-13-25-23\osm.net.xml"/>
        <route-files value="C:\Users\sen_s\Sumo\2020-07-17-13-25-23\osm.passenger.trips.xml"/>
    </input>

    <output>
        <output-file value="C:\Users\sen_s\Sumo\2020-07-17-13-25-23\osm.passenger.trips.xml.tmp"/>
        <write-trips value="true"/>
    </output>

    <time>
        <begin value="0"/>
        <end value="3600.0"/>
    </time>

    <report>
        <no-warnings value="true"/>
        <ignore-errors value="true"/>
        <no-step-log value="true"/>
    </report>

</configuration>
-->

<routes xmlns:xsi="http://www.w3.org/2001/XMLSchema-instance" xsi:noNamespaceSchemaLocation="http://sumo.dlr.de/xsd/routes_file.xsd">
    <vType id="veh_passenger" vClass="passenger"/>
    <trip id="veh0" type="veh_passenger" depart="0.00" departLane="best" from="300825126#0-AddedOffRampEdge" to="-113135397#4"/>
    <trip id="veh1" type="veh_passenger" depart="1.51" departLane="best" from="-61232401#6" to="-450150570"/>
    <trip id="veh3" type="veh_passenger" depart="4.53" departLane="best" from="751454884#3" to="-156357489#2"/>
    <trip id="veh4" type="veh_passenger" depart="6.04" departLane="best" from="131467341#0" to="-113135397#8"/>
    <trip id="veh5" type="veh_passenger" depart="7.56" departLane="best" from="-44629574#3" to="156357492#5"/>
    <trip id="veh6" type="veh_passenger" depart="9.07" departLane="best" from="-113135397#6" to="-442881465"/>
    <trip id="veh7" type="veh_passenger" depart="10.58" departLane="best" departSpeed="max" from="312217346#0" to="156515697#1"/>
    <trip id="veh8" type="veh_passenger" depart="12.09" departLane="best" from="-44629574#5" to="185007810#5"/>
    <trip id="veh9" type="veh_passenger" depart="13.60" departLane="best" from="61232401#6" to="-113135397#13"/>
    <trip id="veh10" type="veh_passenger" depart="15.11" departLane="best" from="61232401#2" to="318745828#9"/>
    <trip id="veh12" type="veh_passenger" depart="18.13" departLane="best" from="824456405#0" to="-746383266#3"/>
    <trip id="veh14" type="veh_passenger" depart="21.16" departLane="best" from="61232401#4" to="442887017#2"/>
    <trip id="veh15" type="veh_passenger" depart="22.67" departLane="best" from="156496227" to="824456408#0"/>
    <trip id="veh16" type="veh_passenger" depart="24.18" departLane="best" from="113135397#25" to="156515738#3"/>
    <trip id="veh18" type="veh_passenger" depart="27.20" departLane="best" from="710398211" to="185007810#3"/>
    <trip id="veh19" type="veh_passenger" depart="28.71" departLane="best" departSpeed="max" from="336620983#0" to="-156261464#2"/>
    <trip id="veh20" type="veh_passenger" depart="30.22" departLane="best" from="-450150575#1" to="-622812957"/>
    <trip id="veh21" type="veh_passenger" depart="31.73" departLane="best" from="-156357473#0" to="-463223680#0"/>
    <trip id="veh22" type="veh_passenger" depart="33.25" departLane="best" from="-156357493#7" to="-620064344"/>
    <trip id="veh23" type="veh_passenger" depart="34.76" departLane="best" from="300825126#0" to="113135397#18"/>
    <trip id="veh24" type="veh_passenger" depart="36.27" departLane="best" from="113135397#19" to="-44572159#2"/>
    <trip id="veh25" type="veh_passenger" depart="37.78" departLane="best" from="-61232377#1" to="824116560#0"/>
    <trip id="veh27" type="veh_passenger" depart="40.80" departLane="best" from="-318706323" to="442887017#0"/>
    <trip id="veh28" type="veh_passenger" depart="42.31" departLane="best" from="-307436705#2" to="113135397#8"/>
    <trip id="veh29" type="veh_passenger" depart="43.82" departLane="best" from="824816456" to="26575926#1"/>
    <trip id="veh30" type="veh_passenger" depart="45.34" departLane="best" from="156515752#0" to="318706321#0"/>
    <trip id="veh31" type="veh_passenger" depart="46.85" departLane="best" from="692958947" to="464709118"/>
    <trip id="veh32" type="veh_passenger" depart="48.36" departLane="best" from="-450150575#2" to="-113135405#3"/>
    <trip id="veh33" type="veh_passenger" depart="49.87" departLane="best" from="-693789444" to="-61232401#1"/>
    <trip id="veh34" type="veh_passenger" depart="51.38" departLane="best" from="-44572159#0" to="824116560#2"/>
    <trip id="veh35" type="veh_passenger" depart="52.89" departLane="best" from="718889435" to="-693793229#0"/>
    <trip id="veh36" type="veh_passenger" depart="54.40" departLane="best" departSpeed="max" from="312217346#0" to="113139310"/>
    <trip id="veh37" type="veh_passenger" depart="55.91" departLane="best" departSpeed="max" from="751455690#0" to="156341172#0"/>
    <trip id="veh38" type="veh_passenger" depart="57.42" departLane="best" from="-61232354#1" to="-507001401#1"/>
    <trip id="veh39" type="veh_passenger" depart="58.94" departLane="best" from="156591171#2" to="-61232374#0"/>
    <trip id="veh42" type="veh_passenger" depart="63.47" departLane="best" from="93727607#2" to="156357497#0"/>
    <trip id="veh43" type="veh_passenger" depart="64.98" departLane="best" from="-156357489#6" to="-156261464#3"/>
    <trip id="veh45" type="veh_passenger" depart="68.00" departLane="best" from="530571735#0" to="153225684#0"/>
    <trip id="veh48" type="veh_passenger" depart="72.54" departLane="best" from="824456407#6" to="693789434"/>
    <trip id="veh49" type="veh_passenger" depart="74.05" departLane="best" from="-113135397#17" to="377691430#0"/>
    <trip id="veh50" type="veh_passenger" depart="75.56" departLane="best" from="318745828#3" to="156501171#1"/>
    <trip id="veh51" type="veh_passenger" depart="77.07" departLane="best" from="-61232377#0" to="26575926#2"/>
    <trip id="veh52" type="veh_passenger" depart="78.58" departLane="best" from="-156496189#2" to="153225684#7"/>
    <trip id="veh53" type="veh_passenger" depart="80.09" departLane="best" from="156261464#10" to="824116561-AddedOffRampEdge"/>
    <trip id="veh54" type="veh_passenger" depart="81.60" departLane="best" from="718889435" to="-61232377#0"/>
    <trip id="veh55" type="veh_passenger" depart="83.11" departLane="best" from="156357489#6" to="-318745828#6"/>
    <trip id="veh56" type="veh_passenger" depart="84.63" departLane="best" departSpeed="max" from="751455690#0" to="710018510"/>
    <trip id="veh57" type="veh_passenger" depart="86.14" departLane="best" from="-63093786#3" to="26575926#0"/>
    <trip id="veh59" type="veh_passenger" depart="89.16" departLane="best" from="464709118" to="156515642"/>
    <trip id="veh60" type="veh_passenger" depart="90.67" departLane="best" from="504358027" to="156496220"/>
    <trip id="veh61" type="veh_passenger" depart="92.18" departLane="best" from="-113135397#0" to="-710591502#0"/>
    <trip id="veh62" type="veh_passenger" depart="93.69" departLane="best" from="-113135397#21" to="824116538#3"/>
    <trip id="veh63" type="veh_passenger" depart="95.20" departLane="best" from="750035412#1" to="620064348"/>
    <trip id="veh65" type="veh_passenger" depart="98.23" departLane="best" from="-156357484#1" to="156357472#1"/>
    <trip id="veh66" type="veh_passenger" depart="99.74" departLane="best" from="-156357444#0" to="450149632#3"/>
    <trip id="veh67" type="veh_passenger" depart="101.25" departLane="best" from="482404745#0" to="-156515639"/>
    <trip id="veh68" type="veh_passenger" depart="102.76" departLane="best" from="156357437#1" to="156515738#0"/>
    <trip id="veh69" type="veh_passenger" depart="104.27" departLane="best" from="-61232354#1" to="710398210"/>
    <trip id="veh70" type="veh_passenger" depart="105.78" departLane="best" from="150557362" to="-44573432"/>
    <trip id="veh72" type="veh_passenger" depart="108.81" departLane="best" from="-442881465" to="-693789444"/>
    <trip id="veh73" type="veh_passenger" depart="110.32" departLane="best" from="93727605#0" to="28504758"/>
    <trip id="veh74" type="veh_passenger" depart="111.83" departLane="best" departSpeed="max" from="153225686#0" to="156496189#1"/>
    <trip id="veh76" type="veh_passenger" depart="114.85" departLane="best" from="-718889435" to="185007810#5"/>
    <trip id="veh77" type="veh_passenger" depart="116.36" departLane="best" from="-450150576#10" to="-44695699#0"/>
    <trip id="veh79" type="veh_passenger" depart="119.38" departLane="best" from="-450150575#2" to="751454884#3"/>
    <trip id="veh80" type="veh_passenger" depart="120.89" departLane="best" from="710398209" to="-156357446#1"/>
    <trip id="veh82" type="veh_passenger" depart="123.92" departLane="best" from="-44573432" to="-156515672"/>
    <trip id="veh83" type="veh_passenger" depart="125.43" departLane="best" from="824116560#0" to="185007810#0"/>
    <trip id="veh84" type="veh_passenger" depart="126.94" departLane="best" from="156357431" to="484458029#2"/>
    <trip id="veh85" type="veh_passenger" depart="128.45" departLane="best" from="61232401#4" to="-319150828#1"/>
    <trip id="veh86" type="veh_passenger" depart="129.96" departLane="best" from="-156357492#5" to="153225684#6"/>
    <trip id="veh87" type="veh_passenger" depart="131.47" departLane="best" from="153225684#0" to="156357425"/>
    <trip id="veh88" type="veh_passenger" depart="132.98" departLane="best" from="824456410#2" to="-156357493#4"/>
    <trip id="veh90" type="veh_passenger" depart="136.01" departLane="best" from="710398211" to="-521480905#1"/>
    <trip id="veh91" type="veh_passenger" depart="137.52" departLane="best" from="-319150826" to="156261400"/>
    <trip id="veh92" type="veh_passenger" depart="139.03" departLane="best" from="131467341#0" to="-620064345"/>
    <trip id="veh93" type="veh_passenger" depart="140.54" departLane="best" from="-514073456#1" to="820349335#0"/>
    <trip id="veh94" type="veh_passenger" depart="142.05" departLane="best" departSpeed="max" from="153225686#0" to="693789436"/>
    <trip id="veh95" type="veh_passenger" depart="143.56" departLane="best" from="156515728#1" to="-156261506"/>
    <trip id="veh96" type="veh_passenger" depart="145.07" departLane="best" from="93727608#0" to="622812952"/>
    <trip id="veh97" type="veh_passenger" depart="146.58" departLane="best" from="824456407#3" to="824116538#2"/>
    <trip id="veh98" type="veh_passenger" depart="148.10" departLane="best" from="156357460#1" to="-44629574#1"/>
    <trip id="veh100" type="veh_passenger" depart="151.12" departLane="best" from="113135397#3" to="824456410#2"/>
    <trip id="veh101" type="veh_passenger" depart="152.63" departLane="best" from="-61232354#1" to="484458029#1"/>
    <trip id="veh102" type="veh_passenger" depart="154.14" departLane="best" from="156261464#2" to="153225684#0"/>
    <trip id="veh103" type="veh_passenger" depart="155.65" departLane="best" from="824456405#0" to="93727605#0"/>
    <trip id="veh104" type="veh_passenger" depart="157.16" departLane="best" from="156515738#4" to="357813632"/>
    <trip id="veh105" type="veh_passenger" depart="158.67" departLane="best" from="-156591307#0" to="-686774704"/>
    <trip id="veh106" type="veh_passenger" depart="160.19" departLane="best" from="824456407#3" to="185007810#5"/>
    <trip id="veh107" type="veh_passenger" depart="161.70" departLane="best" from="156515642" to="450149632#0"/>
    <trip id="veh108" type="veh_passenger" depart="163.21" departLane="best" from="-156357415#5" to="185007810#5"/>
    <trip id="veh109" type="veh_passenger" depart="164.72" departLane="best" from="156357491#2" to="692958945#7"/>
    <trip id="veh110" type="veh_passenger" depart="166.23" departLane="best" from="-186761791#4" to="824456406"/>
    <trip id="veh111" type="veh_passenger" depart="167.74" departLane="best" from="-156357473#1" to="-319148810#1"/>
    <trip id="veh113" type="veh_passenger" depart="170.76" departLane="best" from="751454884#2" to="-507001401#1"/>
    <trip id="veh115" type="veh_passenger" depart="173.79" departLane="best" from="156496189#4" to="824116540#1"/>
    <trip id="veh116" type="veh_passenger" depart="175.30" departLane="best" from="-442887016" to="336620983#7"/>
    <trip id="veh118" type="veh_passenger" depart="178.32" departLane="best" from="318706321#2" to="-692958946#1"/>
    <trip id="veh119" type="veh_passenger" depart="179.83" departLane="best" from="-693789445" to="450149632#3"/>
    <trip id="veh120" type="veh_passenger" depart="181.34" departLane="best" from="-156357449#0" to="156341172#0"/>
    <trip id="veh121" type="veh_passenger" depart="182.85" departLane="best" from="93727607#4" to="93727606#0"/>
    <trip id="veh122" type="veh_passenger" depart="184.36" departLane="best" from="-156357449#1" to="-44629574#0"/>
    <trip id="veh123" type="veh_passenger" depart="185.88" departLane="best" from="-61232354#1" to="824116539#0"/>
    <trip id="veh124" type="veh_passenger" depart="187.39" departLane="best" from="750035412#1-AddedOffRampEdge" to="710591503#0"/>
    <trip id="veh125" type="veh_passenger" depart="188.90" departLane="best" from="113135397#18" to="-286606309"/>
    <trip id="veh128" type="veh_passenger" depart="193.43" departLane="best" departSpeed="max" from="312217346#0" to="-113135397#15"/>
    <trip id="veh129" type="veh_passenger" depart="194.94" departLane="best" from="620064345" to="-692958946#0"/>
    <trip id="veh131" type="veh_passenger" depart="197.96" departLane="best" from="-156515674#0" to="-156496198"/>
    <trip id="veh134" type="veh_passenger" depart="202.50" departLane="best" from="357813632" to="-442887017#5"/>
    <trip id="veh135" type="veh_passenger" depart="204.01" departLane="best" from="156357473#0" to="751454884#3"/>
    <trip id="veh136" type="veh_passenger" depart="205.52" departLane="best" from="153225684#0" to="-620064331"/>
    <trip id="veh137" type="veh_passenger" depart="207.03" departLane="best" from="-113135397#12" to="450150582#0"/>
    <trip id="veh138" type="veh_passenger" depart="208.54" departLane="best" from="44629574#5" to="156515738#3"/>
    <trip id="veh139" type="veh_passenger" depart="210.05" departLane="best" from="153225684#2" to="-113135397#16"/>
    <trip id="veh141" type="veh_passenger" depart="213.08" departLane="best" from="751454885#5" to="156515699#0"/>
    <trip id="veh142" type="veh_passenger" depart="214.59" departLane="best" from="692953427" to="185007810#5"/>
    <trip id="veh143" type="veh_passenger" depart="216.10" departLane="best" from="-156591249#2" to="-156515624"/>
    <trip id="veh144" type="veh_passenger" depart="217.61" departLane="best" from="-693789399#2" to="751454884#1"/>
    <trip id="veh145" type="veh_passenger" depart="219.12" departLane="best" from="751454885#2" to="-44572159#2"/>
    <trip id="veh146" type="veh_passenger" depart="220.63" departLane="best" from="-507001401#1" to="-156485828"/>
    <trip id="veh149" type="veh_passenger" depart="225.17" departLane="best" from="-156591307#0" to="824116538#4"/>
    <trip id="veh150" type="veh_passenger" depart="226.68" departLane="best" from="710591501" to="824456409#0"/>
    <trip id="veh151" type="veh_passenger" depart="228.19" departLane="best" from="61232401#8" to="710591505"/>
    <trip id="veh152" type="veh_passenger" depart="229.70" departLane="best" from="-113135397#4" to="44603565"/>
    <trip id="veh153" type="veh_passenger" depart="231.21" departLane="best" from="-710591505" to="824116538#4"/>
    <trip id="veh159" type="veh_passenger" depart="240.28" departLane="best" from="156341172#0" to="-693789399#2"/>
    <trip id="veh160" type="veh_passenger" depart="241.79" departLane="best" from="612189118" to="-450150576#10"/>
    <trip id="veh161" type="veh_passenger" depart="243.30" departLane="best" from="-113135397#26" to="-319619309"/>
    <trip id="veh162" type="veh_passenger" depart="244.81" departLane="best" from="824456407#2" to="-620064346"/>
    <trip id="veh164" type="veh_passenger" depart="247.83" departLane="best" from="824456409#6" to="156501171#0"/>
    <trip id="veh165" type="veh_passenger" depart="249.34" departLane="best" from="824116560#1" to="-156496189#8"/>
    <trip id="veh166" type="veh_passenger" depart="250.86" departLane="best" from="824456407#6" to="-318745828#6"/>
    <trip id="veh169" type="veh_passenger" depart="255.39" departLane="best" from="442887017#0" to="-693789446"/>
    <trip id="veh171" type="veh_passenger" depart="258.41" departLane="best" from="113135397#8" to="185007810#3"/>
    <trip id="veh172" type="veh_passenger" depart="259.92" departLane="best" from="-521480905#6" to="319150830"/>
    <trip id="veh173" type="veh_passenger" depart="261.43" departLane="best" from="-113135397#0" to="824116538#1"/>
    <trip id="veh176" type="veh_passenger" depart="265.97" departLane="best" from="113135397#14" to="-156357446#0"/>
    <trip id="veh178" type="veh_passenger" depart="268.99" departLane="best" from="-693789442#1" to="692958943"/>
    <trip id="veh179" type="veh_passenger" depart="270.50" departLane="best" from="377691430#0" to="-692958952"/>
    <trip id="veh186" type="veh_passenger" depart="281.08" departLane="best" from="-113135397#0" to="-622812952"/>
    <trip id="veh187" type="veh_passenger" depart="282.59" departLane="best" from="153225684#4" to="185007810#5"/>
    <trip id="veh188" type="veh_passenger" depart="284.10" departLane="best" departSpeed="max" from="312217346#0" to="156357422#0"/>
    <trip id="veh189" type="veh_passenger" depart="285.61" departLane="best" departSpeed="max" from="153225686#0" to="-44629574#0"/>
    <trip id="veh190" type="veh_passenger" depart="287.12" departLane="best" from="156357436" to="751454884#2"/>
    <trip id="veh191" type="veh_passenger" depart="288.64" departLane="best" from="612189119" to="-318706325"/>
    <trip id="veh192" type="veh_passenger" depart="290.15" departLane="best" from="-156357482#1" to="156496166#0"/>
    <trip id="veh193" type="veh_passenger" depart="291.66" departLane="best" from="286606310" to="-746383266#2"/>
    <trip id="veh194" type="veh_passenger" depart="293.17" departLane="best" from="620064347" to="450149632#2"/>
    <trip id="veh195" type="veh_passenger" depart="294.68" departLane="best" from="318706321#3" to="-450150575#0"/>
    <trip id="veh196" type="veh_passenger" depart="296.19" departLane="best" from="-438807578#0" to="-113135397#4"/>
    <trip id="veh198" type="veh_passenger" depart="299.21" departLane="best" from="693789436" to="-156357449#1"/>
    <trip id="veh200" type="veh_passenger" depart="302.24" departLane="best" from="-319619308" to="318745828#5"/>
    <trip id="veh201" type="veh_passenger" depart="303.75" departLane="best" from="156357482#1" to="-504358027"/>
    <trip id="veh202" type="veh_passenger" depart="305.26" departLane="best" departSpeed="max" from="312217346#0" to="-113135397#13"/>
    <trip id="veh204" type="veh_passenger" depart="308.28" departLane="best" from="-318745824#1" to="824456405#0"/>
    <trip id="veh205" type="veh_passenger" depart="309.79" departLane="best" from="156496166#0" to="-156261506"/>
    <trip id="veh206" type="veh_passenger" depart="311.30" departLane="best" from="-507001401#1" to="692958945#0"/>
    <trip id="veh207" type="veh_passenger" depart="312.81" departLane="best" from="156261464#3" to="523236379"/>
    <trip id="veh208" type="veh_passenger" depart="314.33" departLane="best" from="318343130#0" to="824816455"/>
    <trip id="veh211" type="veh_passenger" depart="318.86" departLane="best" from="377691430#0" to="156357492#5"/>
    <trip id="veh212" type="veh_passenger" depart="320.37" departLane="best" from="63093786#2" to="156515728#1"/>
    <trip id="veh213" type="veh_passenger" depart="321.88" departLane="best" from="751454885#2" to="44629574#7"/>
    <trip id="veh214" type="veh_passenger" depart="323.39" departLane="best" from="156357437#0" to="-612189118"/>
    <trip id="veh216" type="veh_passenger" depart="326.42" departLane="best" from="482404745#0" to="156496189#5"/>
    <trip id="veh217" type="veh_passenger" depart="327.93" departLane="best" from="28504780#1" to="-620064328"/>
    <trip id="veh218" type="veh_passenger" depart="329.44" departLane="best" from="-156357472#0" to="-622812930#12"/>
    <trip id="veh219" type="veh_passenger" depart="330.95" departLane="best" from="-61232401#2" to="-710398209"/>
    <trip id="veh221" type="veh_passenger" depart="333.97" departLane="best" from="-450150576#12" to="318745828#1"/>
    <trip id="veh222" type="veh_passenger" depart="335.48" departLane="best" departSpeed="max" from="336620983#0" to="-156357431"/>
    <trip id="veh224" type="veh_passenger" depart="338.50" departLane="best" from="131467340#0" to="751454884#3"/>
    <trip id="veh225" type="veh_passenger" depart="340.02" departLane="best" from="186761791#1" to="318745828#3"/>
    <trip id="veh226" type="veh_passenger" depart="341.53" departLane="best" from="710018508" to="450150570"/>
    <trip id="veh227" type="veh_passenger" depart="343.04" departLane="best" from="-93727605#1" to="450149632#3"/>
    <trip id="veh228" type="veh_passenger" depart="344.55" departLane="best" from="693789446" to="824116561-AddedOffRampEdge"/>
    <trip id="veh231" type="veh_passenger" depart="349.08" departLane="best" departSpeed="max" from="153225686#0" to="-113135397#8"/>
    <trip id="veh233" type="veh_passenger" depart="352.11" departLane="best" from="113514038#0" to="-318706317#2"/>
    <trip id="veh234" type="veh_passenger" depart="353.62" departLane="best" from="156357422#0" to="-156515624"/>
    <trip id="veh235" type="veh_passenger" depart="355.13" departLane="best" from="26576008" to="-113135397#6"/>
    <trip id="veh236" type="veh_passenger" depart="356.64" departLane="best" from="113135481" to="156591254#1"/>
    <trip id="veh237" type="veh_passenger" depart="358.15" departLane="best" from="-113135397#6" to="26576008"/>
    <trip id="veh238" type="veh_passenger" depart="359.66" departLane="best" from="-156515697#0" to="156357410"/>
    <trip id="veh239" type="veh_passenger" depart="361.17" departLane="best" from="-156261505" to="113135397#7"/>
    <trip id="veh240" type="veh_passenger" depart="362.68" departLane="best" from="-44572159#1" to="-710591504"/>
    <trip id="veh241" type="veh_passenger" depart="364.19" departLane="best" from="463223680#1" to="113135397#7"/>
    <trip id="veh242" type="veh_passenger" depart="365.71" departLane="best" from="450150570" to="620064348"/>
    <trip id="veh243" type="veh_passenger" depart="367.22" departLane="best" from="-521480905#1" to="-156357477#2"/>
    <trip id="veh244" type="veh_passenger" depart="368.73" departLane="best" from="-113135397#21" to="156515642"/>
    <trip id="veh245" type="veh_passenger" depart="370.24" departLane="best" from="93727608#0" to="-93727607#3"/>
    <trip id="veh246" type="veh_passenger" depart="371.75" departLane="best" departSpeed="max" from="312217346#0" to="482404745#4"/>
    <trip id="veh247" type="veh_passenger" depart="373.26" departLane="best" departSpeed="max" from="312217346#0" to="450149632#3"/>
    <trip id="veh248" type="veh_passenger" depart="374.77" departLane="best" from="824116561" to="-442887015#0"/>
    <trip id="veh249" type="veh_passenger" depart="376.28" departLane="best" from="-113135397#21" to="-156591290#3"/>
    <trip id="veh251" type="veh_passenger" depart="379.31" departLane="best" from="156591249#0" to="-44629574#5"/>
    <trip id="veh252" type="veh_passenger" depart="380.82" departLane="best" departSpeed="max" from="336620983#0" to="450150575#2"/>
    <trip id="veh255" type="veh_passenger" depart="385.35" departLane="best" from="620064348" to="824456407#0"/>
    <trip id="veh256" type="veh_passenger" depart="386.86" departLane="best" from="-156496166#1" to="-113135397#6"/>
    <trip id="veh259" type="veh_passenger" depart="391.40" departLane="best" from="336620983#5" to="-156357468"/>
    <trip id="veh261" type="veh_passenger" depart="394.42" departLane="best" from="-156357497#1" to="450150582#1"/>
    <trip id="veh264" type="veh_passenger" depart="398.95" departLane="best" from="520440860" to="-93727605#1"/>
    <trip id="veh265" type="veh_passenger" depart="400.46" departLane="best" from="153225684#4" to="113135397#21"/>
    <trip id="veh266" type="veh_passenger" depart="401.97" departLane="best" from="156357492#2" to="-824456409#0"/>
    <trip id="veh267" type="veh_passenger" depart="403.49" departLane="best" from="693789436" to="61232401#7"/>
    <trip id="veh269" type="veh_passenger" depart="406.51" departLane="best" from="300825126#0" to="620064345"/>
    <trip id="veh270" type="veh_passenger" depart="408.02" departLane="best" departSpeed="max" from="336620983#0" to="153225684#7"/>
    <trip id="veh271" type="veh_passenger" depart="409.53" departLane="best" from="44572159#1" to="824456407#2"/>
    <trip id="veh274" type="veh_passenger" depart="414.06" departLane="best" departSpeed="max" from="153225686#0" to="442887017#4"/>
    <trip id="veh276" type="veh_passenger" depart="417.09" departLane="best" from="63093786#2" to="-156357489#2"/>
    <trip id="veh277" type="veh_passenger" depart="418.60" departLane="best" from="750035412#1-AddedOffRampEdge" to="-504358027"/>
    <trip id="veh279" type="veh_passenger" depart="421.62" departLane="best" from="693789443" to="-318745834#1"/>
    <trip id="veh280" type="veh_passenger" depart="423.13" departLane="best" from="-44572159#2" to="521480905#2"/>
    <trip id="veh282" type="veh_passenger" depart="426.15" departLane="best" departSpeed="max" from="336620983#0" to="-620064330"/>
    <trip id="veh283" type="veh_passenger" depart="427.66" departLane="best" from="-113135397#16" to="824116560#3"/>
    <trip id="veh284" type="veh_passenger" depart="429.18" departLane="best" from="-156357484#1" to="377691430#0"/>
    <trip id="veh285" type="veh_passenger" depart="430.69" departLane="best" from="156357473#0" to="450149632#3"/>
    <trip id="veh286" type="veh_passenger" depart="432.20" departLane="best" from="319148811" to="28504751#2"/>
    <trip id="veh287" type="veh_passenger" depart="433.71" departLane="best" from="156357473#2" to="504358028"/>
    <trip id="veh288" type="veh_passenger" depart="435.22" departLane="best" from="-156357492#0" to="-450150566"/>
    <trip id="veh289" type="veh_passenger" depart="436.73" departLane="best" from="319150826" to="-693789428"/>
    <trip id="veh290" type="veh_passenger" depart="438.24" departLane="best" from="185007810#3" to="156357437#1"/>
    <trip id="veh293" type="veh_passenger" depart="442.78" departLane="best" departSpeed="max" from="336620983#0" to="-61232401#5"/>
    <trip id="veh294" type="veh_passenger" depart="444.29" departLane="best" from="-520584166" to="-156496220"/>
    <trip id="veh296" type="veh_passenger" depart="447.31" departLane="best" from="156496227" to="450149632#3"/>
    <trip id="veh297" type="veh_passenger" depart="448.82" departLane="best" from="-318750018#0" to="-44629574#4"/>
    <trip id="veh298" type="veh_passenger" depart="450.33" departLane="best" from="156357460#0" to="438807578#1"/>
    <trip id="veh299" type="veh_passenger" depart="451.84" departLane="best" from="824456409#0" to="156496189#9"/>
    <trip id="veh300" type="veh_passenger" depart="453.35" departLane="best" from="-620064346" to="-156357497#1"/>
    <trip id="veh301" type="veh_passenger" depart="454.87" departLane="best" from="-319619308" to="-450150576#10"/>
    <trip id="veh302" type="veh_passenger" depart="456.38" departLane="best" from="-318745828#4" to="-113135397#19"/>
    <trip id="veh304" type="veh_passenger" depart="459.40" departLane="best" from="824456408#4" to="156515752#0"/>
    <trip id="veh305" type="veh_passenger" depart="460.91" departLane="best" departSpeed="max" from="336620983#0" to="-156501143"/>
    <trip id="veh306" type="veh_passenger" depart="462.42" departLane="best" from="710591503#1" to="156357482#0"/>
    <trip id="veh308" type="veh_passenger" depart="465.44" departLane="best" from="156357425" to="153225684#7"/>
    <trip id="veh309" type="veh_passenger" depart="466.96" departLane="best" from="-318745834#1" to="-156261508"/>
    <trip id="veh310" type="veh_passenger" depart="468.47" departLane="best" from="824116560#1" to="156357446#0"/>
    <trip id="veh313" type="veh_passenger" depart="473.00" departLane="best" from="-156341177#3" to="-156591254#1"/>
    <trip id="veh314" type="veh_passenger" depart="474.51" departLane="best" from="156591171#2" to="-693789399#1"/>
    <trip id="veh317" type="veh_passenger" depart="479.04" departLane="best" from="528448402#0" to="-450150575#2"/>
    <trip id="veh318" type="veh_passenger" depart="480.56" departLane="best" from="156496189#3" to="156261464#1"/>
    <trip id="veh319" type="veh_passenger" depart="482.07" departLane="best" departSpeed="max" from="153225686#0" to="693789434"/>
    <trip id="veh322" type="veh_passenger" depart="486.60" departLane="best" from="44629574#4" to="824116560#3"/>
    <trip id="veh324" type="veh_passenger" depart="489.62" departLane="best" from="-318745822#0" to="-156357460#1"/>
    <trip id="veh325" type="veh_passenger" depart="491.13" departLane="best" from="-113135397#10" to="156261464#1"/>
    <trip id="veh326" type="veh_passenger" depart="492.65" departLane="best" from="-450150576#12" to="319150828#0"/>
    <trip id="veh327" type="veh_passenger" depart="494.16" departLane="best" departSpeed="max" from="336620983#0" to="156261464#3"/>
    <trip id="veh328" type="veh_passenger" depart="495.67" departLane="best" from="318750018#1" to="820349335#0"/>
    <trip id="veh331" type="veh_passenger" depart="500.20" departLane="best" from="153225684#0" to="156515697#1"/>