<?xml version="1.0" encoding="UTF-8"?>

<!-- generated on 07/17/20 13:25:35 by Eclipse SUMO polyconvert Version 1.6.0
<configuration xmlns:xsi="http://www.w3.org/2001/XMLSchema-instance" xsi:noNamespaceSchemaLocation="http://sumo.dlr.de/xsd/polyconvertConfiguration.xsd">

    <input>
        <net-file value="osm.net.xml"/>
        <osm-files value="osm_bbox.osm.xml"/>
        <osm.keep-full-type value="true"/>
        <type-file value="C:\Program%20Files%20(x86)\Eclipse\Sumo\data\typemap\osmPolyconvert.typ.xml"/>
    </input>

    <output>
        <output-file value="osm.poly.xml"/>
    </output>

    <processing>
        <poi-layer-offset value="5"/>
    </processing>

    <report>
        <verbose value="true"/>
    </report>

</configuration>
-->

<additional xmlns:xsi="http://www.w3.org/2001/XMLSchema-instance" xsi:noNamespaceSchemaLocation="http://sumo.dlr.de/xsd/additional_file.xsd">
    <location netOffset="-668413.40,-1512249.35" convBoundary="-750.97,-1701.84,32561.62,8493.04" origBoundary="100.550685,13.658659,100.858347,13.750800" projParameter="+proj=utm +zone=47 +ellps=WGS84 +datum=WGS84 +units=m +no_defs"/>

    <poly id="113107206" type="building.yes" color="255,230,230" fill="1" layer="-1.00" shape="5143.308898,4285.847397 5133.390386,4315.111151 5149.946256,4320.653352 5145.522052,4333.712217 5169.870173,4341.861889 5184.212946,4299.539285 5143.308898,4285.847397"/>
    <poly id="113107208" type="building.yes" color="255,230,230" fill="1" layer="-1.00" shape="5041.397202,4327.831944 5102.377898,4346.248391 5107.276046,4330.227622 5046.306203,4311.800177 5041.397202,4327.831944"/>
    <poly id="113107209" type="amenity.marketplace" color="237,199,199" fill="1" layer="-1.00" shape="4639.929651,3997.732039 4698.901356,4030.549966 4717.486603,3997.570828 4658.514836,3964.752866 4639.929651,3997.732039"/>
    <poly id="113107209#1" type="building.roof" color="255,230,230" fill="1" layer="-1.00" shape="4639.929651,3997.732039 4698.901356,4030.549966 4717.486603,3997.570828 4658.514836,3964.752866 4639.929651,3997.732039"/>
    <poly id="113107210" type="building.yes" color="255,230,230" fill="1" layer="-1.00" shape="5146.322464,4275.091457 5166.835760,4282.485449 5188.484049,4223.239794 5167.970709,4215.845790 5146.322464,4275.091457"/>
    <poly id="113107214" type="building.yes" color="255,230,230" fill="1" layer="-1.00" shape="5065.919064,4303.300772 5069.367960,4292.138363 5103.501013,4302.543529 5111.250124,4277.447406 5123.880039,4281.292910 5112.681927,4317.562499 5065.919064,4303.300772"/>
    <poly id="113107216" type="building.yes" color="255,230,230" fill="1" layer="-1.00" shape="5006.442488,4273.366133 5034.796017,4284.297089 5040.044693,4270.867522 5011.691151,4259.936562 5006.442488,4273.366133"/>
    <poly id="113107217" type="amenity.place_of_worship" color="237,199,199" fill="1" layer="-1.00" shape="4969.585768,4379.995947 4897.931758,4362.814516 4861.566196,4348.168519 4843.511522,4328.864515 4891.336514,4249.855682 4908.384489,4235.032898 5003.753435,4266.201198 4989.926114,4310.762136 4969.585768,4379.995947"/>
    <poly id="113107218" type="building.yes" color="255,230,230" fill="1" layer="-1.00" shape="4951.189440,4338.838976 4969.789125,4344.461003 4974.819772,4328.020681 4956.209333,4322.387516 4951.189440,4338.838976"/>
    <poly id="113107220" type="amenity.school" color="237,199,199" fill="1" layer="-1.00" shape="4969.585768,4379.995947 5018.125697,4390.507682 5057.769929,4258.317362 5010.888033,4244.043896 5003.753435,4266.201198 4989.926114,4310.762136 4969.585768,4379.995947"/>
    <poly id="113107221" type="building.yes" color="255,230,230" fill="1" layer="-1.00" shape="4996.413903,4364.873026 5008.824157,4369.214883 5015.955900,4349.115395 5003.556526,4344.762545 4996.413903,4364.873026"/>
    <poly id="113107224" type="landuse.residential" color="235,235,227" fill="1" layer="-3.00" shape="5160.048215,4210.040086 5134.311304,4282.313661 5057.769929,4258.317362 5018.125697,4390.507682 5128.746809,4406.797644 5156.802175,4410.480109 5196.289034,4295.570236 5169.745109,4285.790669 5192.944932,4220.946073 5160.048215,4210.040086"/>
    <poly id="113107229" type="building.yes" color="255,230,230" fill="1" layer="-1.00" shape="5102.641320,4288.664054 5106.447076,4275.888731 5061.559167,4262.690515 5050.927399,4298.388573 5059.434284,4300.890107 5066.260399,4277.956314 5102.641320,4288.664054"/>
    <poly id="113107230" type="leisure.swimming_pool" color="207,245,201" fill="1" layer="-2.00" shape="5102.381374,4392.958975 5114.804991,4396.913748 5116.991694,4390.135214 5104.568148,4386.169377 5102.381374,4392.958975"/>
    <poly id="113107230#1" type="man_made.yes" color="255,230,230" fill="1" layer="-1.00" shape="5102.381374,4392.958975 5114.804991,4396.913748 5116.991694,4390.135214 5104.568148,4386.169377 5102.381374,4392.958975"/>
    <poly id="113107232" type="building.yes" color="255,230,230" fill="1" layer="-1.00" shape="5040.308011,4369.700464 5030.440154,4366.913310 5038.014414,4340.444126 5085.809744,4353.960340 5082.166614,4366.681426 5044.239169,4355.952372 5040.308011,4369.700464"/>
    <poly id="113107233" type="building.yes" color="255,230,230" fill="1" layer="-1.00" shape="4961.136606,4373.688944 4911.840186,4359.808968 4917.266678,4340.760256 4928.570526,4343.944117 4930.309317,4337.826418 4960.053471,4346.199768 4957.196259,4356.226560 4965.455535,4358.549404 4961.136606,4373.688944"/>
    <poly id="113107238" type="building.yes" color="255,230,230" fill="1" layer="-1.00" shape="5104.464085,4383.922773 5118.526464,4388.685011 5122.607633,4376.785545 5108.545249,4372.023305 5104.464085,4383.922773"/>
    <poly id="113107238#1" type="leisure.sports_centre" color="207,245,201" fill="1" layer="-2.00" shape="5104.464085,4383.922773 5118.526464,4388.685011 5122.607633,4376.785545 5108.545249,4372.023305 5104.464085,4383.922773"/>
    <poly id="113107240" type="building.yes" color="255,230,230" fill="1" layer="-1.00" shape="4978.723131,4362.465454 5015.668005,4372.933427 5012.634191,4383.490096 4975.700147,4373.022198 4978.723131,4362.465454"/>
    <poly id="113107241" type="building.yes" color="255,230,230" fill="1" layer="-1.00" shape="5004.577947,4339.171140 5017.185180,4343.171335 5029.687452,4304.321495 5017.069458,4300.310161 5004.577947,4339.171140"/>
    <poly id="113107242" type="building.yes" color="255,230,230" fill="1" layer="-1.00" shape="5102.173697,4359.080822 5093.361096,4391.217403 5045.497197,4378.264955 5047.669962,4370.324646 5082.296472,4379.704156 5088.936353,4355.496817 5102.173697,4359.080822"/>
    <poly id="113107243" type="building.yes" color="255,230,230" fill="1" layer="-1.00" shape="5115.578819,4365.088880 5133.300668,4370.959663 5128.787230,4384.427290 5152.866079,4392.398145 5167.443441,4348.948607 5125.631869,4335.106882 5115.578819,4365.088880"/>
    <poly id="113135389" type="building.yes" color="255,230,230" fill="1" layer="-1.00" shape="5271.512502,4485.246960 5280.997522,4451.245134 5316.076311,4460.904574 5310.979017,4479.203099 5323.233340,4482.581547 5318.845560,4498.284838 5271.512502,4485.246960"/>
    <poly id="113135390" type="building.yes" color="255,230,230" fill="1" layer="-1.00" shape="5406.384130,4501.500248 5431.890109,4504.668201 5433.101174,4494.973459 5416.932988,4492.962933 5407.595260,4491.794443 5406.384130,4501.500248"/>
    <poly id="113135391" type="amenity.grave_yard" color="237,199,199" fill="1" layer="-1.00" shape="5313.019602,4500.912430 5304.890604,4535.941119 5267.253926,4489.655161 5313.019602,4500.912430"/>
    <poly id="113135392" type="building.apartments" color="255,230,230" fill="1" layer="-1.00" shape="4405.720303,3614.168231 4391.140491,3641.786086 4377.116059,3634.479935 4385.660192,3618.295096 4376.400430,3613.465491 4367.593346,3630.157520 4351.628607,3621.831775 4366.460451,3593.717707 4405.720303,3614.168231"/>
    <poly id="113135401" type="building.yes" color="255,230,230" fill="1" layer="-1.00" shape="5383.473358,4534.217858 5444.031836,4544.467423 5446.091719,4532.377522 5385.543955,4522.139090 5383.473358,4534.217858"/>
    <poly id="113135413" type="building.yes" color="255,230,230" fill="1" layer="-1.00" shape="5370.097680,4422.983712 5427.206294,4438.056128 5434.649476,4410.214250 5377.529985,4395.141753 5370.097680,4422.983712"/>
    <poly id="113135414" type="shop.mall" color="237,199,255" fill="1" layer="-1.00" shape="5522.381147,4217.107178 5429.428156,4268.310633 5422.263802,4270.497822 5415.116962,4271.678339 5406.828099,4272.176379 5397.864588,4271.652082 5389.559025,4269.782401 5457.576284,4069.496480 5476.636298,4066.105065 5536.632128,4071.671057 5537.587316,4063.047785 5584.323184,4065.162284 5564.956011,4191.048101 5522.381147,4217.107178"/>
    <poly id="113135420" type="waterway.stream" color="181,209,209" fill="0" layer="-4.00" shape="4991.907763,4885.651324 5055.554170,4824.958568 5077.819727,4789.946290 5079.956810,4758.064092 5075.943167,4588.797377 5075.410499,4577.796611 5074.194878,4552.364362 5067.276454,4414.908397"/>
    <poly id="113135421" type="waterway.drain" color="181,209,209" fill="0" layer="-4.00" shape="4485.891522,3292.460788 4491.517510,3269.386194 4438.883761,3370.557494 4398.102710,3457.457758 4366.357568,3515.995476 4361.394230,3537.027703 4309.610447,3630.847509 4307.201083,3643.521497 4312.791380,3653.648405 4239.239777,3808.782562 4212.967733,3877.280558"/>
    <poly id="113135427" type="building.yes" color="255,230,230" fill="1" layer="-1.00" shape="5337.873089,4522.496883 5322.535988,4517.504764 5326.984839,4504.003539 5342.322022,4508.984597 5337.873089,4522.496883"/>
    <poly id="113135429" type="building.apartments" color="255,230,230" fill="1" layer="-1.00" shape="4566.849291,3989.957331 4538.778311,3975.488470 4555.452827,3943.536570 4583.523837,3958.005446 4566.849291,3989.957331"/>
    <poly id="113135431" type="building.apartments" color="255,230,230" fill="1" layer="-1.00" shape="4425.264854,3576.769819 4410.164676,3568.560393 4417.949055,3554.406233 4408.345709,3549.187124 4400.780441,3562.922318 4386.639472,3555.239236 4400.182681,3530.623813 4439.038017,3551.735517 4425.264854,3576.769819"/>
    <poly id="113135432" type="building.apartments" color="255,230,230" fill="1" layer="-1.00" shape="4389.298401,3645.546586 4375.521451,3671.167248 4337.029561,3650.732900 4351.233656,3624.307404 4368.307655,3633.370675 4360.696383,3647.525988 4369.201035,3652.040817 4376.385207,3638.679260 4389.298401,3645.546586"/>
    <poly id="113135436" type="building.apartments" color="255,230,230" fill="1" layer="-1.00" shape="4423.152620,3583.759093 4410.261685,3607.880956 4370.486148,3586.895967 4383.114241,3563.259148 4397.989698,3571.101974 4389.611082,3586.790045 4398.633330,3591.551702 4407.274762,3575.378573 4423.152620,3583.759093"/>
    <poly id="113135439" type="building.yes" color="255,230,230" fill="1" layer="-1.00" shape="5395.819837,4468.460360 5454.482275,4477.579891 5456.277939,4466.185240 5397.615475,4457.065708 5395.819837,4468.460360"/>
    <poly id="113135445" type="building.yes" color="255,230,230" fill="1" layer="-1.00" shape="4840.909885,3544.858940 4745.165371,3499.737917 4765.271214,3457.707770 4773.201598,3441.142797 4810.315525,3458.957650 4798.183075,3482.818869 4858.705294,3513.611602 4840.909885,3544.858940"/>
    <poly id="113135445#1" type="shop.mall" color="237,199,255" fill="1" layer="-1.00" shape="4840.909885,3544.858940 4745.165371,3499.737917 4765.271214,3457.707770 4773.201598,3441.142797 4810.315525,3458.957650 4798.183075,3482.818869 4858.705294,3513.611602 4840.909885,3544.858940"/>
    <poly id="113135446" type="building.yes" color="255,230,230" fill="1" layer="-1.00" shape="5332.994904,4543.629150 5318.218631,4538.884161 5323.817142,4521.662142 5338.593497,4526.396069 5332.994904,4543.629150"/>
    <poly id="113135448" type="building.yes" color="255,230,230" fill="1" layer="-1.00" shape="5373.588591,4530.733441 5343.084810,4526.027650 5345.321824,4511.693009 5375.825622,4516.398801 5373.588591,4530.733441"/>
    <poly id="113135449" type="landuse.construction" color="194,194,130" fill="1" layer="-3.00" shape="4854.477023,4020.926726 4822.898143,4003.712637 4862.268091,3932.370055 4893.847116,3949.573120 4854.477023,4020.926726"/>
    <poly id="113135454" type="amenity.parking" color="184,184,179" fill="1" layer="-1.00" shape="4649.952698,3586.653569 4643.839125,3583.692312 4532.672770,3529.917863 4567.596347,3458.622904 4684.876557,3515.358736 4649.952698,3586.653569"/>
    <poly id="113135457" type="amenity.place_of_worship" color="237,199,199" fill="1" layer="-1.00" shape="5263.020048,4485.467094 5287.074436,4436.902830 5320.841629,4448.611387 5323.395249,4441.968068 5395.720163,4454.176557 5459.476858,4464.978467 5450.231999,4547.374165 5385.307374,4536.564484 5375.078760,4591.272447 5375.009726,4601.649668 5364.587640,4599.268040 5361.719630,4596.261783 5310.418128,4542.405839 5263.020048,4485.467094"/>
    <poly id="113135459" type="amenity.school" color="237,199,199" fill="1" layer="-1.00" shape="5435.119613,4443.596341 5450.231522,4448.299370 5461.845294,4411.402013 5446.744181,4406.699051 5435.119613,4443.596341"/>
    <poly id="113135459#1" type="building.yes" color="255,230,230" fill="1" layer="-1.00" shape="5435.119613,4443.596341 5450.231522,4448.299370 5461.845294,4411.402013 5446.744181,4406.699051 5435.119613,4443.596341"/>
    <poly id="113135460" type="amenity.school" color="237,199,199" fill="1" layer="-1.00" shape="5375.690516,4387.108390 5458.334268,4407.495314 5462.419800,4393.338932 5379.778726,4372.542664 5375.690516,4387.108390"/>
    <poly id="113135460#1" type="building.yes" color="255,230,230" fill="1" layer="-1.00" shape="5375.690516,4387.108390 5458.334268,4407.495314 5462.419800,4393.338932 5379.778726,4372.542664 5375.690516,4387.108390"/>
    <poly id="113135461" type="leisure.garden" color="207,245,201" fill="1" layer="-2.00" shape="5024.268144,4646.516069 5027.393499,4723.174436 5070.072625,4723.557422 5063.618104,4773.610586 4948.840181,4774.353207 4939.244683,4774.555050 4907.344719,4678.731706 4904.141934,4669.118312 4903.413475,4648.490925 4934.371156,4646.715952 4934.783949,4652.969627 5024.268144,4646.516069"/>
    <poly id="113135467" type="amenity.school" color="237,199,199" fill="1" layer="-1.00" shape="5449.979462,4461.795319 5468.616331,4393.546124 5366.041295,4367.716060 5345.125441,4443.639358 5449.979462,4461.795319"/>
    <poly id="113135468" type="landuse.residential" color="235,235,227" fill="1" layer="-3.00" shape="4375.760256,3679.223103 4330.486376,3655.491248 4406.950808,3504.934695 4416.848995,3509.735336 4423.080270,3498.170847 4462.960069,3518.127681 4375.760256,3679.223103"/>
    <poly id="113135469" type="building.apartments" color="255,230,230" fill="1" layer="-1.00" shape="4442.620631,3544.855538 4401.029900,3523.548730 4409.214427,3507.770868 4417.827944,3512.186856 4423.645854,3500.973669 4456.623029,3517.875569 4442.620631,3544.855538"/>
    <poly id="113135472" type="waterway.drain" color="181,209,209" fill="0" layer="-4.00" shape="5300.935118,3461.394246 5356.967877,3475.916977 5515.472821,3517.618741 5570.152019,3529.079392 5608.067848,3527.096899 5649.882100,3516.344830 5688.464524,3516.601742 5776.558426,3532.766156 5816.412194,3543.520060 5936.635687,3565.674407 6112.698437,3572.912088 6276.898971,3618.407286 6327.997525,3639.559557 6336.198095,3650.689105 6373.028905,3731.711182 6376.760013,3812.700061 6373.266598,3819.104692 6363.065942,3828.861019 6362.100757,3835.702976 6365.069202,3844.717588 6401.488363,3967.812152"/>
    <poly id="113135478" type="amenity.school" color="237,199,199" fill="1" layer="-1.00" shape="5413.000751,4451.569871 5415.411218,4442.060127 5449.567022,4450.629374 5447.156616,4460.128053 5413.000751,4451.569871"/>
    <poly id="113135478#1" type="building.yes" color="255,230,230" fill="1" layer="-1.00" shape="5413.000751,4451.569871 5415.411218,4442.060127 5449.567022,4450.629374 5447.156616,4460.128053 5413.000751,4451.569871"/>
    <poly id="113514055" type="landuse.meadow" color="194,194,130" fill="1" layer="-3.00" shape="3509.388491,3262.921229 3526.872952,3242.535491 3547.654148,3222.525475 3570.935471,3205.596511 3608.818732,3187.181537 3659.910696,3181.753599 3697.738059,3165.274492 3722.741132,3157.949060 3737.948201,3133.554511 3724.786487,3105.222675 3685.144616,3017.714778 3652.782650,2912.077501 3615.128467,3020.584238 3571.155643,3124.424891 3583.668041,3131.444015 3551.721616,3196.165723 3541.467911,3191.108645 3509.388491,3262.921229"/>
    <poly id="122921188" type="natural.water" color="181,209,209" fill="1" layer="-4.00" shape="7410.912889,4240.079746 7414.871374,4253.006686 7425.458096,4274.331344 7444.468171,4305.725372 7491.090268,4331.142798 7497.244252,4337.678639 7500.175931,4340.840476 7651.765331,4487.958182 7657.411268,4549.001695 7730.094435,4551.306104 7745.249213,4560.834599 7778.682137,4583.486273 7795.098878,4587.126334 7830.076603,4582.804018 7876.928586,4570.828311 7958.236976,4550.057255 7985.150883,4543.346246 8032.680032,4533.632380 8059.843091,4530.076299 8069.294438,4528.834619 8119.411847,4494.665343 8158.959818,4495.950465 8207.891092,4510.863260 8206.991771,4523.890300 8342.419377,4520.303251 8391.978323,4493.598723 8486.951940,4491.575251 8513.762341,4500.187402 8579.970487,4503.523504 8678.980065,4496.527239 8920.587355,4549.999998 9015.913235,4585.310153 9033.474371,4594.037074 9113.313999,4612.912244 9247.966413,4639.053147 9360.270958,4674.789917 9458.692568,4693.770537 9641.803653,4754.751705 9821.585673,4804.171946 10003.659153,4847.424460 10165.042650,4891.864514 10178.924733,4902.304152 10353.229456,4952.089148 10432.392030,4973.254189 10556.036636,5003.276653 10820.134843,5066.381796 11031.632692,5126.096760 11203.584623,5182.631707 11419.472177,5236.118041 11541.870256,5266.258583 11701.664483,5320.976233 12391.262811,5513.221507 12384.875067,5537.518056 11698.227348,5344.131511 11526.829744,5296.879514 11411.308299,5262.438253 11201.709003,5202.135576 11025.604568,5154.910040 10818.290491,5098.708940 10553.331072,5033.473606 10314.552671,4965.809194 10175.959580,4924.655029 10156.129776,4918.755169 9948.336384,4864.206672 9789.125539,4823.102001 9639.394641,4782.859576 9531.742295,4750.251068 9437.543794,4724.273358 9344.531662,4709.910040 9294.143918,4683.423387 9243.423961,4667.600109 9110.255894,4633.160373 8909.431906,4577.594854 8733.633572,4532.124885 8642.838683,4525.656647 8560.745786,4532.767623 8490.135564,4515.018836 8416.685197,4515.749666 8357.795967,4536.991888 8358.074749,4548.544357 8309.622277,4557.211402 8244.830949,4557.127238 8205.578440,4544.149569 8152.960434,4517.782983 8127.403742,4520.520044 8098.312238,4540.536971 8032.154960,4560.126538 7961.567563,4572.627675 7793.699804,4611.733737 7762.542113,4598.158589 7732.639440,4573.306924 7724.721571,4573.319921 7654.239355,4567.047406 7635.109261,4551.927118 7632.651843,4499.258224 7616.549623,4469.797629 7487.401140,4355.336468 7423.874279,4318.409636 7397.076937,4265.997468 7389.160578,4262.558706 7380.524261,4266.450352 7362.564682,4287.914856 7345.665664,4301.265730 7329.266187,4307.893231 7304.928270,4314.367780 7289.952643,4323.195495 7282.916407,4330.428109 7249.799084,4455.402479 7245.074232,4484.058935 7246.685995,4500.134292 7200.661951,4527.373539 7186.527334,4526.968746 7178.754393,4526.341188 7149.457563,4506.218547 7110.808475,4493.523243 7081.186592,4489.573650 7047.114350,4494.378788 7021.924384,4492.472622 7010.965644,4474.973698 6999.851085,4445.237275 6993.645798,4406.052223 6989.735518,4353.694646 6962.593660,4315.431186 6922.203508,4273.604860 6912.311597,4258.292707 6901.693541,4210.946277 6906.058749,4108.470392 6898.727842,4099.979609 6897.770713,4071.738631 6904.227930,4063.738640 6904.260114,4036.367267 6890.682889,4035.070246 6868.326499,4041.226599 6794.978374,4134.698695 6762.846746,4154.928985 6701.399663,4162.560446 6659.441664,4156.072581 6626.398819,4128.269463 6601.621935,4080.784141 6572.764101,4049.889179 6548.387885,4033.008752 6431.936715,3988.981496 6378.195173,3978.200036 6356.793469,3982.338550 6331.238839,4002.546950 6314.740661,4048.229165 6326.031875,4066.249930 6385.290658,4115.713613 6395.006277,4138.027648 6366.626277,4197.393563 6333.467781,4266.109533 6320.023455,4298.336607 6305.749224,4325.269701 6285.148305,4345.577614 6239.888479,4358.960796 6199.508440,4362.419363 6161.254701,4347.139289 6112.028449,4293.649547 6052.984197,4273.617250 6005.913240,4287.718944 5958.166314,4307.491860 5948.470268,4332.453137 5948.666152,4406.835379 5928.660808,4475.728004 5933.910241,4540.053921 5928.451368,4588.155445 5910.931246,4608.827132 5879.241197,4618.196804 5816.484100,4605.165614 5763.711377,4608.243435 5711.982871,4613.695941 5535.441756,4643.652878 5436.825821,4640.695164 5417.781435,4649.928259 5396.000725,4646.121271 5375.349079,4636.812128 5350.402949,4625.925529 5327.235629,4602.913993 5322.943580,4602.597794 5319.908251,4605.232877 5316.700825,4610.975694 5326.246443,4641.054787 5331.245269,4673.338496 5327.796065,4689.413128 5285.290554,4853.215037 5271.482193,4891.624618 5270.957443,4897.341022 5274.393150,4901.180819 5316.296429,4922.225934 5340.763612,4951.408586 5338.231087,4982.524783 5268.164601,5048.938341 5212.263717,5078.549049 5177.347941,5093.308141 5237.068335,5187.104286 5265.546415,5223.051313 5287.178471,5267.018224 5306.575464,5292.505098 5295.214289,5299.631936 5265.871672,5261.964247 5248.718335,5224.377664 5234.539012,5219.382183 5241.294241,5249.398463 5232.722971,5316.807442 5182.866853,5660.676312 5184.498925,5763.313352 5175.525269,5891.248760 5143.541083,5989.048715 5133.947084,6036.259788 5123.326779,6034.496432 5102.604792,6031.050629 5154.924321,5848.439355 5164.802062,5758.568834 5165.246763,5691.692183 5164.687548,5601.741204 5192.660867,5409.364841 5212.700386,5186.942254 5164.848117,5136.671888 5154.694022,5124.921216 5146.596627,5116.182458 5146.903439,5099.312479 5154.198526,5083.927216 5169.416895,5064.423632 5215.892048,5056.667202 5261.314193,5031.600341 5313.931964,4971.985456 5315.952193,4959.342107 5293.263579,4939.210290 5253.090719,4924.704253 5243.873144,4918.502655 5241.603924,4910.034960 5246.004193,4890.813516 5300.921791,4690.340761 5299.326954,4653.654248 5294.594012,4635.058018 5268.806339,4562.021552 5215.241317,4479.263676 5140.601745,4458.908557 5131.583155,4453.659815 5064.827126,4438.435492 4928.112728,4416.208522 4878.426839,4397.458034 4845.222261,4382.434731 4827.180238,4369.381753 4804.893164,4347.283816 4786.512947,4315.077549 4782.648113,4294.363012 4780.078568,4280.582870 4777.168581,4247.992366 4773.478337,4148.705362 4765.892137,4132.944787 4750.007015,4122.461873 4731.444034,4121.066561 4701.723802,4130.262646 4665.763994,4150.646976 4628.258339,4170.899413 4553.099665,4205.915916 4508.933538,4216.001244 4441.553629,4231.199332 4426.426741,4231.995420 4391.984576,4222.496350 4367.635146,4204.688938 4333.998723,4151.837150 4254.285079,4020.118563 4180.520886,3973.407753 4132.539958,3960.002745 4133.527570,3952.950715 4121.765849,3950.273130 4113.120556,3955.604011 4108.940880,3954.636018 4105.577809,3949.579900 4100.572437,3947.522229 4099.484434,3943.565358 4053.860905,3926.967636 4040.814857,3920.575324 4040.242630,3922.054065 4050.462414,3927.277116 4053.847400,3929.014304 4045.497318,3946.981732 4031.728317,3937.044317 4017.601334,3925.622033 3992.584247,3918.763546 3991.624640,3923.215827 3950.365229,3912.411194 3945.931807,3905.633192 3939.223651,3902.623924 3803.402295,3864.234278 3774.438637,3857.128739 3700.591837,3793.215103 3621.260764,3679.966535 3552.476730,3550.070689 3514.482503,3504.847568 3474.026161,3480.363496 3350.058400,3448.416008 3338.103897,3501.387022 3288.918460,3569.093475 3214.150374,3643.568839 3172.180938,3673.275427 3165.359084,3651.313842 3217.845253,3611.298715 3301.001536,3496.529816 3299.031981,3442.316734 3273.611318,3425.997062 3186.647282,3413.897958 3033.601305,3392.138778 2895.832983,3341.649161 2846.016608,3327.482389 2572.908209,3283.343971 2570.221431,3292.254625 2528.287172,3288.506507 2496.465092,3286.661090 2488.165906,3283.752469 2474.604954,3276.605343 2478.786264,3262.449302 2470.983944,3253.027551 2465.929027,3241.964238 2465.218073,3234.890035 2460.357951,3230.432887 2455.585806,3225.755046 2451.479688,3215.162602 2444.756316,3206.157261 2437.077831,3202.611034 2428.109628,3201.103125 2426.450715,3193.425305 2427.940527,3187.250560 2436.172135,3183.952112 2438.715072,3180.494798 2436.911213,3168.512341 2436.131433,3148.792149 2442.334081,3146.442966 2446.862828,3140.365522 2448.140764,3121.920009 2440.150683,3103.148419 2451.762999,3057.576427 2453.155813,3048.037756 2450.122493,3038.802069 2441.079002,3033.908250 2650.961241,2928.097346 2585.604606,3220.896241 2745.591522,3245.010339 3116.303031,3346.612800 3178.841588,3365.477081 3195.133335,3358.658253 3257.712935,3372.909519 3354.917999,3415.058249 3475.440928,3441.218998 3528.607588,3473.863026 3564.055789,3509.842435 3594.487592,3560.204674 3603.682940,3581.418644 3668.138311,3696.770816 3717.126107,3749.556637 3758.685966,3782.124816 3766.555367,3807.545345 3853.452534,3842.713611 3885.515093,3852.295773 3908.857448,3855.602769 3944.591432,3857.929399 3958.240671,3856.514769 3979.906925,3851.546305 4002.527837,3842.877867 4008.894594,3833.692865 4010.869936,3808.082713 4014.756319,3781.367750 4022.353856,3752.862846 4028.800001,3743.125192 4033.798965,3751.079674 4034.890916,3752.801728 4027.982457,3771.951412 4024.814168,3798.029427 4024.593551,3800.318126 4024.430503,3808.636841 4022.699820,3833.230761 4023.761493,3841.181395 4024.891742,3843.656024 4028.102498,3843.931668 4030.797782,3842.002265 4031.215443,3840.998238 4043.034117,3812.100773 4050.456547,3798.663277 4093.959217,3790.829703 4097.753628,3804.285901 4101.754364,3807.786262 4098.595270,3819.348953 4089.803365,3828.860902 4064.858277,3835.666319 4054.920935,3841.729954 4055.154830,3845.625868 4061.216911,3844.913548 4063.418491,3848.955209 4058.247653,3849.020660 4057.956378,3863.655818 4063.892613,3863.982643 4064.016144,3887.880734 4034.256294,3878.501614 4026.704477,3911.553936 4043.051155,3916.076151 4074.067010,3921.978556 4093.686327,3927.230470 4135.240050,3936.045841 4145.944415,3938.318162 4161.487881,3941.618161 4242.203601,3983.982590 4248.879779,3973.815027 4252.471512,3957.354046 4203.697529,3877.318904 4170.308542,3867.141208 4166.119089,3875.842693 4162.818029,3882.691366 4151.181782,3906.876919 4107.355478,3893.300261 4076.617956,3886.193729 4077.552937,3846.138770 4105.230377,3839.982023 4129.158598,3833.192058 4190.009891,3840.320474 4213.011260,3854.312893 4300.125970,4018.518540 4306.158242,4030.495995 4368.850294,4155.054728 4387.238686,4182.846312 4427.990271,4204.933195 4501.276771,4192.905142 4543.232208,4181.809443 4570.096546,4172.638540 4594.993655,4159.991736 4627.751328,4141.289904 4653.543423,4122.541977 4712.322223,4083.201974 4739.242302,4080.337841 4761.304453,4084.190332 4780.422617,4094.849568 4792.935476,4113.109981 4798.945730,4125.109561 4811.689848,4194.961055 4824.499009,4276.197438 4829.914537,4306.105051 4843.511522,4328.864515 4861.566196,4348.168519 4897.931758,4362.814516 4969.585768,4379.995947 5018.125697,4390.507682 5128.746809,4406.797644 5156.802175,4410.480109 5180.912895,4413.649598 5221.111298,4437.460090 5308.600298,4544.130739 5363.157643,4599.601500 5433.404058,4623.379940 5600.593026,4610.652479 5733.068502,4583.854021 5802.722205,4579.704892 5865.313469,4591.661760 5913.218733,4575.629312 5917.342813,4539.522943 5915.321780,4474.433057 5934.189031,4405.886868 5929.087147,4334.027599 5946.501414,4300.067753 5970.435375,4279.494190 6015.929524,4261.786218 6061.263681,4253.470295 6129.620232,4275.257549 6191.424110,4325.833117 6217.558051,4335.411885 6262.262557,4327.435083 6295.431054,4305.717585 6318.006296,4265.154234 6353.511920,4193.212292 6372.100450,4155.211205 6374.482256,4137.104842 6358.715499,4113.854189 6308.673244,4083.702973 6295.670099,4046.696582 6311.782998,4000.392218 6323.696258,3983.621901 6344.548798,3967.785390 6373.123476,3958.583420 6418.880080,3958.369475 6532.269296,4010.618597 6575.947863,4029.962680 6605.385950,4054.975649 6643.474640,4119.156732 6661.310203,4135.495579 6687.167971,4144.331695 6718.474138,4143.966172 6751.608317,4135.536445 6774.572316,4127.470060 6796.436525,4104.360761 6840.038002,4035.150996 6849.510013,4025.998458 6868.127486,4008.000985 6902.443018,4000.873799 6941.602018,4003.791802 6944.904026,4043.665404 6940.635298,4075.323198 6930.631566,4123.416361 6922.304415,4163.455336 6921.544560,4167.079132 6927.071410,4225.189579 6943.467749,4260.924726 6999.477487,4320.436166 7012.855386,4357.843861 7016.714540,4416.197633 7022.677823,4447.924131 7026.040696,4467.418838 7046.950747,4476.863837 7125.746838,4470.898743 7154.146323,4486.136222 7195.600719,4504.703154 7214.817005,4494.166903 7223.876846,4475.530125 7235.544097,4405.320761 7248.402285,4376.785367 7260.048953,4333.781551 7271.137110,4307.889555 7288.919442,4295.075635 7336.946981,4280.418352 7359.401592,4261.263196 7382.447339,4237.852499 7410.912889,4240.079746"/>
    <poly id="156496247" type="building.apartments" color="255,230,230" fill="1" layer="-1.00" shape="4819.438292,3559.552923 4815.481050,3557.656954 4810.186748,3555.121502 4806.414214,3562.896335 4763.596208,3542.377358 4762.194394,3541.715321 4753.991431,3558.610396 4807.451873,3584.233808 4819.438292,3559.552923"/>