<?xml version="1.0" encoding="UTF-8"?>

<!-- generated on 07/17/20 13:55:32 by Eclipse SUMO netedit Version 1.6.0
<configuration xmlns:xsi="http://www.w3.org/2001/XMLSchema-instance" xsi:noNamespaceSchemaLocation="http://sumo.dlr.de/xsd/netconvertConfiguration.xsd">

    <input>
        <sumo-net-file value="C:\Users\sen_s\Sumo\2020-07-17-13-25-23\osm_work.net.xml"/>
    </input>

    <output>
        <output-file value="C:\Users\sen_s\Sumo\2020-07-17-13-25-23\osm_work.net.xml"/>
        <output.street-names value="true"/>
    </output>

    <processing>
        <geometry.min-radius.fix.railways value="false"/>
        <geometry.max-grade.fix value="false"/>
        <offset.disable-normalization value="true"/>
        <lefthand value="true"/>
    </processing>

    <junctions>
        <no-turnarounds value="true"/>
        <junctions.corner-detail value="5"/>
        <junctions.limit-turn-speed value="5.5"/>
        <rectangular-lane-cut value="false"/>
    </junctions>

    <pedestrian>
        <walkingareas value="false"/>
    </pedestrian>

    <report>
        <aggregate-warnings value="5"/>
    </report>

</configuration>
-->

<net version="1.6" junctionCornerDetail="5" lefthand="true" limitTurnSpeed="5.50" xmlns:xsi="http://www.w3.org/2001/XMLSchema-instance" xsi:noNamespaceSchemaLocation="http://sumo.dlr.de/xsd/net_file.xsd">

    <location netOffset="-668413.40,-1512249.35" convBoundary="0.00,0.00,6369.20,8493.04" origBoundary="100.557451,13.658659,100.858347,13.750800" projParameter="+proj=utm +zone=47 +ellps=WGS84 +datum=WGS84 +units=m +no_defs"/>

    <type id="highway.bridleway" priority="1" numLanes="1" speed="2.78" allow="pedestrian" oneway="1" width="2.00"/>
    <type id="highway.bus_guideway" priority="1" numLanes="1" speed="27.78" allow="bus" oneway="1"/>
    <type id="highway.cycleway" priority="1" numLanes="1" speed="8.33" allow="bicycle" oneway="0" width="1.00"/>
    <type id="highway.footway" priority="1" numLanes="1" speed="2.78" allow="pedestrian" oneway="1" width="2.00"/>
    <type id="highway.ford" priority="1" numLanes="1" speed="2.78" allow="army" oneway="0"/>
    <type id="highway.living_street" priority="2" numLanes="1" speed="2.78" disallow="tram rail_urban rail rail_electric rail_fast ship" oneway="0"/>
    <type id="highway.motorway" priority="14" numLanes="2" speed="39.44" allow="private emergency authority army vip passenger hov taxi bus coach delivery truck trailer motorcycle evehicle custom1 custom2" oneway="1"/>
    <type id="highway.motorway_link" priority="9" numLanes="1" speed="22.22" allow="private emergency authority army vip passenger hov taxi bus coach delivery truck trailer motorcycle evehicle custom1 custom2" oneway="1"/>
    <type id="highway.path" priority="1" numLanes="1" speed="2.78" allow="pedestrian bicycle" oneway="1" width="2.00"/>
    <type id="highway.pedestrian" priority="1" numLanes="1" speed="2.78" allow="pedestrian" oneway="1" width="2.00"/>
    <type id="highway.primary" priority="12" numLanes="2" speed="27.78" disallow="tram rail_urban rail rail_electric rail_fast ship" oneway="0"/>
    <type id="highway.primary_link" priority="7" numLanes="1" speed="22.22" disallow="tram rail_urban rail rail_electric rail_fast ship" oneway="0"/>
    <type id="highway.raceway" priority="15" numLanes="2" speed="83.33" allow="vip" oneway="0"/>
    <type id="highway.residential" priority="3" numLanes="1" speed="13.89" disallow="tram rail_urban rail rail_electric rail_fast ship" oneway="0"/>
    <type id="highway.secondary" priority="11" numLanes="1" speed="27.78" disallow="tram rail_urban rail rail_electric rail_fast ship" oneway="0"/>
    <type id="highway.secondary_link" priority="6" numLanes="1" speed="22.22" disallow="tram rail_urban rail rail_electric rail_fast ship" oneway="0"/>
    <type id="highway.service" priority="1" numLanes="1" speed="5.56" allow="pedestrian delivery bicycle" oneway="0"/>
    <type id="highway.stairs" priority="1" numLanes="1" speed="1.39" allow="pedestrian" oneway="1" width="2.00"/>
    <type id="highway.step" priority="1" numLanes="1" speed="1.39" allow="pedestrian" oneway="1" width="2.00"/>
    <type id="highway.steps" priority="1" numLanes="1" speed="1.39" allow="pedestrian" oneway="1" width="2.00"/>
    <type id="highway.tertiary" priority="10" numLanes="1" speed="22.22" disallow="tram rail_urban rail rail_electric rail_fast ship" oneway="0"/>
    <type id="highway.tertiary_link" priority="5" numLanes="1" speed="22.22" disallow="tram rail_urban rail rail_electric rail_fast ship" oneway="0"/>
    <type id="highway.track" priority="1" numLanes="1" speed="5.56" disallow="tram rail_urban rail rail_electric rail_fast ship" oneway="0"/>
    <type id="highway.trunk" priority="13" numLanes="2" speed="27.78" disallow="pedestrian bicycle tram rail_urban rail rail_electric rail_fast ship" oneway="0"/>
    <type id="highway.trunk_link" priority="8" numLanes="1" speed="22.22" disallow="pedestrian bicycle tram rail_urban rail rail_electric rail_fast ship" oneway="0"/>
    <type id="highway.unclassified" priority="4" numLanes="1" speed="13.89" disallow="tram rail_urban rail rail_electric rail_fast ship" oneway="0"/>
    <type id="highway.unsurfaced" priority="1" numLanes="1" speed="8.33" disallow="tram rail_urban rail rail_electric rail_fast ship" oneway="0"/>
    <type id="railway.highspeed" priority="21" numLanes="1" speed="69.44" allow="rail_fast" oneway="1"/>
    <type id="railway.light_rail" priority="19" numLanes="1" speed="27.78" allow="rail_urban" oneway="1"/>
    <type id="railway.preserved" priority="16" numLanes="1" speed="27.78" allow="rail" oneway="1"/>
    <type id="railway.rail" priority="20" numLanes="1" speed="44.44" allow="rail" oneway="1"/>
    <type id="railway.subway" priority="18" numLanes="1" speed="27.78" allow="rail_urban" oneway="1"/>
    <type id="railway.tram" priority="17" numLanes="1" speed="13.89" allow="tram" oneway="1"/>

    <edge id=":1088409489_0" function="internal">
        <lane id=":1088409489_0_0" index="0" disallow="tram rail_urban rail rail_electric rail_fast ship" speed="6.62" length="9.18" shape="4630.14,3734.00 4628.07,3732.53 4626.94,3730.76 4626.74,3728.70 4627.48,3726.35"/>
    </edge>
    <edge id=":1088409489_1" function="internal">
        <lane id=":1088409489_1_0" index="0" disallow="tram rail_urban rail rail_electric rail_fast ship" speed="3.65" length="4.67" shape="4630.14,3734.00 4628.70,3734.17 4627.98,3734.69 4627.97,3735.59 4628.67,3736.85"/>
    </edge>
    <edge id=":1088409489_2" function="internal">
        <lane id=":1088409489_2_0" index="0" disallow="tram rail_urban rail rail_electric rail_fast ship" speed="6.43" length="9.03" shape="4621.23,3739.33 4622.61,3737.26 4624.31,3736.16 4626.33,3736.02 4628.67,3736.85"/>
    </edge>
    <edge id=":1088409489_3" function="internal">
        <lane id=":1088409489_3_0" index="0" disallow="tram rail_urban rail rail_electric rail_fast ship" speed="27.78" length="14.43" shape="4621.23,3739.33 4627.48,3726.35"/>
        <lane id=":1088409489_3_1" index="1" disallow="tram rail_urban rail rail_electric rail_fast ship" speed="27.78" length="14.43" shape="4618.34,3737.95 4624.60,3724.95"/>
        <lane id=":1088409489_3_2" index="2" disallow="tram rail_urban rail rail_electric rail_fast ship" speed="27.78" length="14.43" shape="4615.46,3736.57 4621.73,3723.55"/>
    </edge>
    <edge id=":1088409493_0" function="internal">
        <lane id=":1088409493_0_0" index="0" disallow="tram rail_urban rail rail_electric rail_fast ship" speed="3.65" length="4.67" shape="4748.62,3817.56 4748.76,3818.99 4749.27,3819.73 4750.16,3819.76 4751.44,3819.08"/>
    </edge>
    <edge id=":1088409536_0" function="internal">
        <lane id=":1088409536_0_0" index="0" disallow="tram rail_urban rail rail_electric rail_fast ship" speed="13.89" length="14.23" shape="4783.22,3985.30 4771.32,3977.56"/>
        <lane id=":1088409536_0_1" index="1" disallow="tram rail_urban rail rail_electric rail_fast ship" speed="13.89" length="14.23" shape="4781.50,3988.00 4769.55,3980.22"/>
    </edge>
    <edge id=":1088409536_2" function="internal">
        <lane id=":1088409536_2_0" index="0" disallow="tram rail_urban rail rail_electric rail_fast ship" speed="8.64" length="5.23" shape="4781.50,3988.00 4777.80,3986.54 4776.55,3986.69"/>
    </edge>
    <edge id=":1088409536_3" function="internal">
        <lane id=":1088409536_3_0" index="0" disallow="tram rail_urban rail rail_electric rail_fast ship" speed="3.65" length="2.34" shape="4781.50,3988.00 4780.05,3988.03 4779.29,3988.49"/>
    </edge>
    <edge id=":1088409536_11" function="internal">
        <lane id=":1088409536_11_0" index="0" disallow="tram rail_urban rail rail_electric rail_fast ship" speed="8.64" length="11.70" shape="4776.55,3986.69 4774.27,3986.97 4770.88,3989.28 4767.64,3993.48"/>
    </edge>
    <edge id=":1088409536_12" function="internal">
        <lane id=":1088409536_12_0" index="0" disallow="tram rail_urban rail rail_electric rail_fast ship" speed="3.65" length="2.34" shape="4779.29,3988.49 4779.19,3989.38 4779.77,3990.70"/>
    </edge>
    <edge id=":1088409536_4" function="internal">
        <lane id=":1088409536_4_0" index="0" disallow="tram rail_urban rail rail_electric rail_fast ship" speed="6.47" length="9.03" shape="4770.36,3995.16 4771.95,3993.25 4773.76,3992.32 4775.79,3992.37 4778.05,3993.40"/>
    </edge>
    <edge id=":1088409536_5" function="internal">
        <lane id=":1088409536_5_0" index="0" disallow="tram rail_urban rail rail_electric rail_fast ship" speed="8.77" length="16.80" shape="4770.36,3995.16 4772.67,3990.39 4773.30,3986.31 4772.26,3982.92 4769.55,3980.22"/>
    </edge>
    <edge id=":1088409536_6" function="internal">
        <lane id=":1088409536_6_0" index="0" disallow="tram rail_urban rail rail_electric rail_fast ship" speed="3.65" length="4.67" shape="4770.36,3995.16 4770.31,3993.72 4769.84,3992.96 4768.95,3992.88 4767.64,3993.48"/>
    </edge>
    <edge id=":1088409536_7" function="internal">
        <lane id=":1088409536_7_0" index="0" disallow="tram rail_urban rail rail_electric rail_fast ship" speed="6.63" length="9.15" shape="4766.01,3985.55 4767.84,3987.20 4768.72,3989.07 4768.66,3991.16 4767.64,3993.48"/>
    </edge>
    <edge id=":1088409536_8" function="internal">
        <lane id=":1088409536_8_0" index="0" disallow="tram rail_urban rail rail_electric rail_fast ship" speed="13.89" length="14.34" shape="4766.01,3985.55 4778.05,3993.40"/>
        <lane id=":1088409536_8_1" index="1" disallow="tram rail_urban rail rail_electric rail_fast ship" speed="13.89" length="14.34" shape="4767.78,3982.89 4779.77,3990.70"/>
    </edge>
    <edge id=":1088409536_10" function="internal">
        <lane id=":1088409536_10_0" index="0" disallow="tram rail_urban rail rail_electric rail_fast ship" speed="3.65" length="2.34" shape="4767.78,3982.89 4769.22,3982.89 4769.99,3982.44"/>
    </edge>
    <edge id=":1088409536_13" function="internal">
        <lane id=":1088409536_13_0" index="0" disallow="tram rail_urban rail rail_electric rail_fast ship" speed="3.65" length="2.34" shape="4769.99,3982.44 4770.10,3981.55 4769.55,3980.22"/>
    </edge>
    <edge id=":1088409538_0" function="internal">
        <lane id=":1088409538_0_0" index="0" disallow="tram rail_urban rail rail_electric rail_fast ship" speed="3.65" length="4.67" shape="4728.78,4056.74 4728.83,4058.18 4729.30,4058.94 4730.19,4059.02 4731.50,4058.42"/>
    </edge>
    <edge id=":1088409544_0" function="internal">
        <lane id=":1088409544_0_0" index="0" disallow="tram rail_urban rail rail_electric rail_fast ship" speed="3.65" length="4.67" shape="4440.21,3813.19 4438.80,3813.50 4438.14,3814.10 4438.22,3814.99 4439.05,3816.17"/>
    </edge>
    <edge id=":1088409549_0" function="internal">
        <lane id=":1088409549_0_0" index="0" disallow="tram rail_urban rail rail_electric rail_fast ship" speed="13.89" length="13.13" shape="4348.78,3744.16 4343.13,3756.02"/>
    </edge>
    <edge id=":1088409549_1" function="internal">
        <lane id=":1088409549_1_0" index="0" disallow="tram rail_urban rail rail_electric rail_fast ship" speed="8.02" length="6.00" shape="4348.78,3744.16 4347.60,3747.86 4347.79,3749.96"/>
    </edge>
    <edge id=":1088409549_2" function="internal">
        <lane id=":1088409549_2_0" index="0" disallow="tram rail_urban rail rail_electric rail_fast ship" speed="3.65" length="2.34" shape="4348.78,3744.16 4348.98,3745.59 4349.52,3746.30"/>
    </edge>
    <edge id=":1088409549_9" function="internal">
        <lane id=":1088409549_9_0" index="0" disallow="tram rail_urban rail rail_electric rail_fast ship" speed="8.02" length="8.24" shape="4347.79,3749.96 4347.89,3751.06 4349.66,3753.76 4352.90,3755.95"/>
    </edge>
    <edge id=":1088409549_10" function="internal">
        <lane id=":1088409549_10_0" index="0" disallow="tram rail_urban rail rail_electric rail_fast ship" speed="3.65" length="2.34" shape="4349.52,3746.30 4350.42,3746.29 4351.66,3745.56"/>
    </edge>
    <edge id=":1088409549_3" function="internal">
        <lane id=":1088409549_3_0" index="0" disallow="tram rail_urban rail rail_electric rail_fast ship" speed="6.53" length="9.08" shape="4354.30,3753.07 4352.23,3751.67 4351.10,3749.95 4350.91,3747.91 4351.66,3745.56"/>
    </edge>
    <edge id=":1088409549_4" function="internal">
        <lane id=":1088409549_4_0" index="0" disallow="tram rail_urban rail rail_electric rail_fast ship" speed="7.69" length="13.20" shape="4354.30,3753.07 4350.61,3751.80 4347.52,3751.86 4345.02,3753.27 4343.13,3756.02"/>
    </edge>
    <edge id=":1088409549_5" function="internal">
        <lane id=":1088409549_5_0" index="0" disallow="tram rail_urban rail rail_electric rail_fast ship" speed="3.65" length="4.67" shape="4354.30,3753.07 4352.88,3753.26 4352.16,3753.81 4352.17,3754.70 4352.90,3755.95"/>
    </edge>
    <edge id=":1088409549_6" function="internal">
        <lane id=":1088409549_6_0" index="0" disallow="tram rail_urban rail rail_electric rail_fast ship" speed="6.35" length="8.68" shape="4345.66,3758.18 4346.93,3756.28 4348.56,3755.27 4350.55,3755.16 4352.90,3755.95"/>
    </edge>
    <edge id=":1088409549_7" function="internal">
        <lane id=":1088409549_7_0" index="0" disallow="tram rail_urban rail rail_electric rail_fast ship" speed="13.89" length="13.98" shape="4345.66,3758.18 4351.66,3745.56"/>
    </edge>
    <edge id=":1088409549_8" function="internal">
        <lane id=":1088409549_8_0" index="0" disallow="tram rail_urban rail rail_electric rail_fast ship" speed="3.70" length="2.87" shape="4345.66,3758.18 4345.84,3756.69 4345.47,3755.84 4345.04,3755.73"/>
    </edge>
    <edge id=":1088409549_11" function="internal">
        <lane id=":1088409549_11_0" index="0" disallow="tram rail_urban rail rail_electric rail_fast ship" speed="3.70" length="1.98" shape="4345.04,3755.73 4344.57,3755.61 4343.13,3756.02"/>
    </edge>
    <edge id=":1088409551_0" function="internal">
        <lane id=":1088409551_0_0" index="0" disallow="tram rail_urban rail rail_electric rail_fast ship" speed="3.65" length="4.67" shape="4312.64,3739.36 4311.20,3739.45 4310.46,3739.94 4310.40,3740.83 4311.04,3742.12"/>
    </edge>
    <edge id=":1088409560_0" function="internal">
        <lane id=":1088409560_0_0" index="0" disallow="tram rail_urban rail rail_electric rail_fast ship" speed="6.64" length="9.11" shape="4898.98,3748.40 4897.34,3750.22 4895.48,3751.11 4893.40,3751.06 4891.09,3750.07"/>
    </edge>
    <edge id=":1088409560_1" function="internal">
        <lane id=":1088409560_1_0" index="0" disallow="tram rail_urban rail rail_electric rail_fast ship" speed="13.89" length="14.28" shape="4898.98,3748.40 4891.36,3760.48"/>
    </edge>
    <edge id=":1088409560_2" function="internal">
        <lane id=":1088409560_2_0" index="0" disallow="tram rail_urban rail rail_electric rail_fast ship" speed="3.65" length="2.34" shape="4898.98,3748.40 4898.98,3749.84 4899.43,3750.62"/>
    </edge>
    <edge id=":1088409560_9" function="internal">
        <lane id=":1088409560_9_0" index="0" disallow="tram rail_urban rail rail_electric rail_fast ship" speed="3.65" length="2.34" shape="4899.43,3750.62 4900.32,3750.73 4901.65,3750.17"/>
    </edge>
    <edge id=":1088409560_3" function="internal">
        <lane id=":1088409560_3_0" index="0" disallow="tram rail_urban rail rail_electric rail_fast ship" speed="13.89" length="14.12" shape="4894.11,3762.12 4901.65,3750.17"/>
    </edge>
    <edge id=":1088409560_4" function="internal">
        <lane id=":1088409560_4_0" index="0" disallow="tram rail_urban rail rail_electric rail_fast ship" speed="8.00" length="5.66" shape="4894.11,3762.12 4895.61,3758.54 4895.60,3756.75"/>
    </edge>
    <edge id=":1088409560_5" function="internal">
        <lane id=":1088409560_5_0" index="0" disallow="tram rail_urban rail rail_electric rail_fast ship" speed="3.65" length="2.34" shape="4894.11,3762.12 4894.04,3760.68 4893.56,3759.92"/>
    </edge>
    <edge id=":1088409560_10" function="internal">
        <lane id=":1088409560_10_0" index="0" disallow="tram rail_urban rail rail_electric rail_fast ship" speed="8.00" length="8.49" shape="4895.60,3756.75 4895.60,3755.34 4894.10,3752.52 4891.09,3750.07"/>
    </edge>
    <edge id=":1088409560_11" function="internal">
        <lane id=":1088409560_11_0" index="0" disallow="tram rail_urban rail rail_electric rail_fast ship" speed="3.65" length="2.34" shape="4893.56,3759.92 4892.67,3759.86 4891.36,3760.48"/>
    </edge>
    <edge id=":1088409560_6" function="internal">
        <lane id=":1088409560_6_0" index="0" disallow="tram rail_urban rail rail_electric rail_fast ship" speed="6.51" length="9.00" shape="4889.44,3752.81 4891.35,3754.37 4892.31,3756.17 4892.31,3758.20 4891.36,3760.48"/>
    </edge>
    <edge id=":1088409560_7" function="internal">
        <lane id=":1088409560_7_0" index="0" disallow="tram rail_urban rail rail_electric rail_fast ship" speed="8.11" length="14.10" shape="4889.44,3752.81 4893.00,3754.33 4896.22,3754.40 4899.10,3753.01 4901.65,3750.17"/>
    </edge>
    <edge id=":1088409560_8" function="internal">
        <lane id=":1088409560_8_0" index="0" disallow="tram rail_urban rail rail_electric rail_fast ship" speed="3.65" length="4.67" shape="4889.44,3752.81 4890.88,3752.75 4891.64,3752.27 4891.71,3751.38 4891.09,3750.07"/>
    </edge>
    <edge id=":1088409586_0" function="internal">
        <lane id=":1088409586_0_0" index="0" disallow="tram rail_urban rail rail_electric rail_fast ship" speed="6.50" length="9.03" shape="4991.99,3768.21 4990.37,3770.08 4988.54,3770.98 4986.50,3770.91 4984.25,3769.87"/>
    </edge>
    <edge id=":1088409586_1" function="internal">
        <lane id=":1088409586_1_0" index="0" disallow="tram rail_urban rail rail_electric rail_fast ship" speed="13.89" length="14.45" shape="4991.99,3768.21 4984.17,3780.36"/>
    </edge>
    <edge id=":1088409586_2" function="internal">
        <lane id=":1088409586_2_0" index="0" disallow="tram rail_urban rail rail_electric rail_fast ship" speed="8.05" length="5.94" shape="4991.99,3768.21 4990.37,3771.75 4990.30,3773.79"/>
    </edge>
    <edge id=":1088409586_3" function="internal">
        <lane id=":1088409586_3_0" index="0" disallow="tram rail_urban rail rail_electric rail_fast ship" speed="3.65" length="2.34" shape="4991.99,3768.21 4992.01,3769.65 4992.47,3770.42"/>
    </edge>
    <edge id=":1088409586_16" function="internal">
        <lane id=":1088409586_16_0" index="0" disallow="tram rail_urban rail rail_electric rail_fast ship" speed="8.05" length="8.31" shape="4990.30,3773.79 4990.26,3774.97 4991.67,3777.87 4994.59,3780.46"/>
    </edge>
    <edge id=":1088409586_17" function="internal">
        <lane id=":1088409586_17_0" index="0" disallow="tram rail_urban rail rail_electric rail_fast ship" speed="3.65" length="2.34" shape="4992.47,3770.42 4993.36,3770.51 4994.68,3769.94"/>
    </edge>
    <edge id=":1088409586_4" function="internal">
        <lane id=":1088409586_4_0" index="0" disallow="tram rail_urban rail rail_electric rail_fast ship" speed="6.57" length="9.13" shape="4996.35,3777.79 4994.48,3776.13 4993.57,3774.27 4993.64,3772.20 4994.68,3769.94"/>
    </edge>
    <edge id=":1088409586_5" function="internal">
        <lane id=":1088409586_5_0" index="0" disallow="tram rail_urban rail rail_electric rail_fast ship" speed="13.89" length="14.46" shape="4996.35,3777.79 4984.25,3769.87"/>
    </edge>
    <edge id=":1088409586_6" function="internal">
        <lane id=":1088409586_6_0" index="0" disallow="tram rail_urban rail rail_electric rail_fast ship" speed="7.98" length="14.23" shape="4996.35,3777.79 4992.82,3776.12 4989.61,3775.99 4986.73,3777.41 4984.17,3780.36"/>
    </edge>
    <edge id=":1088409586_7" function="internal">
        <lane id=":1088409586_7_0" index="0" disallow="tram rail_urban rail rail_electric rail_fast ship" speed="3.65" length="4.67" shape="4996.35,3777.79 4994.91,3777.79 4994.14,3778.24 4994.03,3779.13 4994.59,3780.46"/>
    </edge>
    <edge id=":1088409586_8" function="internal">
        <lane id=":1088409586_8_0" index="0" disallow="tram rail_urban rail rail_electric rail_fast ship" speed="6.48" length="9.03" shape="4986.86,3782.09 4988.48,3780.22 4990.31,3779.32 4992.35,3779.40 4994.59,3780.46"/>
    </edge>
    <edge id=":1088409586_9" function="internal">
        <lane id=":1088409586_9_0" index="0" disallow="tram rail_urban rail rail_electric rail_fast ship" speed="13.89" length="14.45" shape="4986.86,3782.09 4994.68,3769.94"/>
    </edge>
    <edge id=":1088409586_10" function="internal">
        <lane id=":1088409586_10_0" index="0" disallow="tram rail_urban rail rail_electric rail_fast ship" speed="8.03" length="5.95" shape="4986.86,3782.09 4988.49,3778.54 4988.56,3776.49"/>
    </edge>
    <edge id=":1088409586_11" function="internal">
        <lane id=":1088409586_11_0" index="0" disallow="tram rail_urban rail rail_electric rail_fast ship" speed="3.65" length="2.34" shape="4986.86,3782.09 4986.84,3780.65 4986.38,3779.88"/>
    </edge>
    <edge id=":1088409586_18" function="internal">
        <lane id=":1088409586_18_0" index="0" disallow="tram rail_urban rail rail_electric rail_fast ship" speed="8.03" length="8.29" shape="4988.56,3776.49 4988.60,3775.32 4987.18,3772.43 4984.25,3769.87"/>
    </edge>
    <edge id=":1088409586_19" function="internal">
        <lane id=":1088409586_19_0" index="0" disallow="tram rail_urban rail rail_electric rail_fast ship" speed="3.65" length="2.34" shape="4986.38,3779.88 4985.49,3779.78 4984.17,3780.36"/>
    </edge>
    <edge id=":1088409586_12" function="internal">
        <lane id=":1088409586_12_0" index="0" disallow="tram rail_urban rail rail_electric rail_fast ship" speed="6.54" length="9.10" shape="4982.51,3772.55 4984.38,3774.19 4985.28,3776.03 4985.21,3778.09 4984.17,3780.36"/>
    </edge>
    <edge id=":1088409586_13" function="internal">
        <lane id=":1088409586_13_0" index="0" disallow="tram rail_urban rail rail_electric rail_fast ship" speed="13.89" length="14.44" shape="4982.51,3772.55 4994.59,3780.46"/>
    </edge>
    <edge id=":1088409586_14" function="internal">
        <lane id=":1088409586_14_0" index="0" disallow="tram rail_urban rail rail_electric rail_fast ship" speed="7.99" length="14.21" shape="4982.51,3772.55 4986.04,3774.19 4989.25,3774.30 4992.13,3772.88 4994.68,3769.94"/>
    </edge>
    <edge id=":1088409586_15" function="internal">
        <lane id=":1088409586_15_0" index="0" disallow="tram rail_urban rail rail_electric rail_fast ship" speed="3.65" length="4.67" shape="4982.51,3772.55 4983.95,3772.53 4984.72,3772.08 4984.82,3771.19 4984.25,3769.87"/>
    </edge>
    <edge id=":1088409629_0" function="internal">
        <lane id=":1088409629_0_0" index="0" disallow="tram rail_urban rail rail_electric rail_fast ship" speed="3.65" length="4.67" shape="5002.24,4265.71 5002.63,4267.10 5003.27,4267.72 5004.15,4267.59 5005.28,4266.69"/>
    </edge>
    <edge id=":1283649058_0" function="internal">
        <lane id=":1283649058_0_0" index="0" disallow="tram rail_urban rail rail_electric rail_fast ship" speed="6.37" length="9.04" shape="4984.21,4105.96 4982.75,4107.99 4981.00,4109.01 4978.98,4109.03 4976.69,4108.04"/>
    </edge>
    <edge id=":1283649058_1" function="internal">
        <lane id=":1283649058_1_0" index="0" disallow="tram rail_urban rail rail_electric rail_fast ship" speed="8.91" length="16.83" shape="4984.21,4105.96 4982.18,4110.92 4981.73,4115.09 4982.86,4118.46 4985.56,4121.03"/>
    </edge>
    <edge id=":1283649058_2" function="internal">
        <lane id=":1283649058_2_0" index="0" disallow="tram rail_urban rail rail_electric rail_fast ship" speed="3.65" length="4.67" shape="4984.21,4105.96 4984.36,4107.40 4984.88,4108.12 4985.78,4108.14 4987.04,4107.45"/>
    </edge>
    <edge id=":1283649058_3" function="internal">
        <lane id=":1283649058_3_0" index="0" disallow="tram rail_urban rail rail_electric rail_fast ship" speed="6.80" length="9.39" shape="4988.94,4115.60 4987.08,4114.00 4986.14,4112.11 4986.13,4109.93 4987.04,4107.45"/>
    </edge>
    <edge id=":1283649058_4" function="internal">
        <lane id=":1283649058_4_0" index="0" disallow="tram rail_urban rail rail_electric rail_fast ship" speed="13.89" length="14.39" shape="4988.94,4115.60 4976.69,4108.04"/>
        <lane id=":1283649058_4_1" index="1" disallow="tram rail_urban rail rail_electric rail_fast ship" speed="13.89" length="14.39" shape="4987.25,4118.32 4975.02,4110.77"/>
    </edge>
    <edge id=":1283649058_6" function="internal">
        <lane id=":1283649058_6_0" index="0" disallow="tram rail_urban rail rail_electric rail_fast ship" speed="3.65" length="2.34" shape="4987.25,4118.32 4985.81,4118.36 4985.05,4118.83"/>
    </edge>
    <edge id=":1283649058_11" function="internal">
        <lane id=":1283649058_11_0" index="0" disallow="tram rail_urban rail rail_electric rail_fast ship" speed="3.65" length="2.34" shape="4985.05,4118.83 4984.96,4119.72 4985.56,4121.03"/>
    </edge>
    <edge id=":1283649058_7" function="internal">
        <lane id=":1283649058_7_0" index="0" disallow="tram rail_urban rail rail_electric rail_fast ship" speed="13.89" length="14.33" shape="4971.68,4116.23 4983.86,4123.75"/>
        <lane id=":1283649058_7_1" index="1" disallow="tram rail_urban rail rail_electric rail_fast ship" speed="13.89" length="14.33" shape="4973.35,4113.50 4985.56,4121.03"/>
    </edge>
    <edge id=":1283649058_9" function="internal">
        <lane id=":1283649058_9_0" index="0" disallow="tram rail_urban rail rail_electric rail_fast ship" speed="8.56" length="5.37" shape="4973.35,4113.50 4977.19,4114.95 4978.44,4114.76"/>
    </edge>
    <edge id=":1283649058_10" function="internal">
        <lane id=":1283649058_10_0" index="0" disallow="tram rail_urban rail rail_electric rail_fast ship" speed="3.65" length="2.34" shape="4973.35,4113.50 4974.79,4113.44 4975.55,4112.97"/>
    </edge>
    <edge id=":1283649058_12" function="internal">
        <lane id=":1283649058_12_0" index="0" disallow="tram rail_urban rail rail_electric rail_fast ship" speed="8.56" length="11.85" shape="4978.44,4114.76 4980.76,4114.42 4984.04,4111.92 4987.04,4107.45"/>
    </edge>
    <edge id=":1283649058_13" function="internal">
        <lane id=":1283649058_13_0" index="0" disallow="tram rail_urban rail rail_electric rail_fast ship" speed="3.65" length="2.34" shape="4975.55,4112.97 4975.63,4112.08 4975.02,4110.77"/>
    </edge>
    <edge id=":1283869037_0" function="internal">
        <lane id=":1283869037_0_0" index="0" disallow="tram rail_urban rail rail_electric rail_fast ship" speed="12.50" length="14.74" shape="4551.26,4279.07 4537.35,4283.95"/>
    </edge>
    <edge id=":1283869037_1" function="internal">
        <lane id=":1283869037_1_0" index="0" disallow="tram rail_urban rail rail_electric rail_fast ship" speed="7.68" length="15.03" shape="4551.26,4279.07 4547.45,4280.95 4545.43,4283.52 4545.20,4286.78 4546.76,4290.73"/>
    </edge>
    <edge id=":1283869037_2" function="internal">
        <lane id=":1283869037_2_0" index="0" disallow="tram rail_urban rail rail_electric rail_fast ship" speed="3.65" length="4.67" shape="4551.26,4279.07 4550.37,4280.20 4550.24,4281.09 4550.87,4281.72 4552.25,4282.11"/>
    </edge>
    <edge id=":1283869037_3" function="internal">
        <lane id=":1283869037_3_0" index="0" disallow="tram rail_urban rail rail_electric rail_fast ship" speed="6.11" length="9.06" shape="4549.54,4289.14 4548.60,4286.76 4548.74,4284.79 4549.96,4283.25 4552.25,4282.11"/>
    </edge>
    <edge id=":1283869037_4" function="internal">
        <lane id=":1283869037_4_0" index="0" disallow="tram rail_urban rail rail_electric rail_fast ship" speed="8.61" length="14.63" shape="4549.54,4289.14 4547.05,4285.79 4544.19,4283.81 4540.96,4283.19 4537.35,4283.95"/>
    </edge>
    <edge id=":1283869037_5" function="internal">
        <lane id=":1283869037_5_0" index="0" disallow="tram rail_urban rail rail_electric rail_fast ship" speed="3.65" length="2.52" shape="4549.54,4289.14 4548.25,4288.50 4547.36,4288.55 4547.26,4288.70"/>
    </edge>
    <edge id=":1283869037_9" function="internal">
        <lane id=":1283869037_9_0" index="0" disallow="tram rail_urban rail rail_electric rail_fast ship" speed="3.65" length="2.16" shape="4547.26,4288.70 4546.86,4289.29 4546.76,4290.73"/>
    </edge>
    <edge id=":1283869037_6" function="internal">
        <lane id=":1283869037_6_0" index="0" disallow="tram rail_urban rail rail_electric rail_fast ship" speed="7.23" length="10.04" shape="4538.49,4286.94 4540.89,4286.46 4543.07,4286.93 4545.03,4288.36 4546.76,4290.73"/>