<?xml version="1.0" encoding="UTF-8"?>

<!-- generated on 07/20/20 15:55:03 by Eclipse SUMO GUI Version 1.6.0
-->

<configuration xmlns:xsi="http://www.w3.org/2001/XMLSchema-instance" xsi:noNamespaceSchemaLocation="http://sumo.dlr.de/xsd/sumoConfiguration.xsd">

    <input>
        <net-file value="osm_draft5_additional_2.net.xml"/>
        <route-files value="draft7_Add.rou.xml"/>
    </input>

</configuration>
