<?xml version="1.0" encoding="UTF-8"?>

<!-- generated on 07/17/20 21:27:01 by Eclipse SUMO netedit Version 1.6.0
<configuration xmlns:xsi="http://www.w3.org/2001/XMLSchema-instance" xsi:noNamespaceSchemaLocation="http://sumo.dlr.de/xsd/netconvertConfiguration.xsd">

    <input>
        <sumo-net-file value="/Users/book/Downloads/Sumo(1)/KasemRat_grid_lock.net.xml"/>
    </input>

    <output>
        <output-file value="/Users/book/Downloads/Sumo(1)/KasemRat_grid_lock.net.xml"/>
        <output.street-names value="true"/>
    </output>

    <processing>
        <geometry.min-radius.fix.railways value="false"/>
        <geometry.max-grade.fix value="false"/>
        <offset.disable-normalization value="true"/>
        <lefthand value="true"/>
    </processing>

    <junctions>
        <no-turnarounds value="true"/>
        <junctions.corner-detail value="5"/>
        <junctions.limit-turn-speed value="5.5"/>
        <rectangular-lane-cut value="false"/>
    </junctions>

    <pedestrian>
        <walkingareas value="false"/>
    </pedestrian>

    <netedit>
        <route-files value="C:\Program%20Files%20(x86)\Eclipse\Sumo\map_grid_lock_add2TL_copy.rou.xml"/>
    </netedit>

    <report>
        <aggregate-warnings value="5"/>
    </report>

</configuration>
-->

<routes xmlns:xsi="http://www.w3.org/2001/XMLSchema-instance" xsi:noNamespaceSchemaLocation="http://sumo.dlr.de/xsd/routes_file.xsd">
    <vType accel="2.0" decel="2.5" id="Car" length="4.62" minGap="2.37" maxSpeed="12.5" sigma="0.7"/>
	<vType accel="2.0" decel="2.5" id="Bus" length="7.5" color = "blue" minGap="3.5" maxSpeed="12.5" sigma="0.7" vClass="bus"/>
	<!-- ['inter_Rama4', 'inter_5naranong', 'inter_5naranong', 'inter_Surakakorn', 'inter_Surakakorn', 'Right_Surakakorn'] -->
	<route id="route1" edges="gneE28 824116549#0 824116550#0 185563494 824116554 824116555#0 824116555#0-AddedOffRampEdge 824116555#3 482384848#0 482384848#1 -55814053#0 55814053#1 55814053#2 55814053#5"/>
	<!-- ['Prakanong', 'inter_kasem Rat', 'inter_kasem Rat', 'inter_Rama4', 'inter_Rama4', 'inter_5naranong', 'inter_5naranong', 'inter_Surakakorn', 'inter_Surakakorn', 'Right_Surakakorn'] -->
	<route id="AAAA0" edges="825786433#0 825786433#1 825786433#2 825786433#3 825786433#6 820373193 820373194#0 482209831#0 482209831#2 820373195 820373196#0 820373198#0 825786415 157059855 824116549#0 824116550#0 185563494 824116554 824116555#0 824116555#0-AddedOffRampEdge 824116555#3 482384848#0 482384848#1 -55814053#0 55814053#1 55814053#2 55814053#5"/>
	<!-- ['Prakanong', 'inter_kasem Rat', 'inter_kasem Rat', 'inter_Rama4', 'inter_Rama4', 'inter_5naranong', 'inter_5naranong', 'inter_Surakakorn', 'inter_Surakakorn', 'Right_Surakakorn'] -->
	<route id="AAAA1" edges="825786433#0 825786433#1 825786433#2 825786433#3 825786433#6 820373193 820373194#0 482209831#0 482209831#2 820373195 820373196#0 820373198#0 825786415 825786416 481971011#0 481971011#1-AddedOnRampEdge 481971011#1 459492916#0 459492916#0-AddedOffRampEdge 824116544 185563494 824116554 824116555#0 824116555#0-AddedOffRampEdge 824116555#3 482384848#0 482384848#1 -55814053#0 55814053#1 55814053#2 55814053#5"/>
	<!-- ['vittayu', 'inter_Rama4', 'inter_Rama4', 'inter_kasem Rat', 'inter_kasem Rat', 'Prakanong'] -->
	<route id="AAAA2" edges="178173932#0 300803489#0 300803489#1 300803489#2 825786379 825786380 300803484 480596365 480596367#0 480596367#1 480596367#3 825786383#0 825786397 752225467 459492912#0 459492912#1 825786400 459492917#0 825786410 153225678#0 153225678#1-AddedOnRampEdge 153225678#1 153225678#2 153225678#3 820340552#0 820340552#1 820340552#2 459551209#0 459551209#3 482209830#0 300813736#0 300813736#2 300813736#3 300813736#4 820345539#3 820345543"/>
	<!-- ['vittayu', 'inter_Rama4', 'inter_Rama4', 'inter_5naranong', 'inter_5naranong', 'inter_Surakakorn', 'inter_Surakakorn', 'Right_Surakakorn'] -->
	<route id="AAAA3" edges="178173932#0 300803489#0 300803489#1 300803489#2 825786379 156966562 752186031 480596356 480596358#0 480596358#1 480596367#3 825786383#0 825786397 752225467 459492912#0 459492912#1 825786400 459492917#0 825786410 9168676 824116549#0 824116550#0 185563494 824116554 824116555#0 824116555#0-AddedOffRampEdge 824116555#3 482384848#0 482384848#1 -55814053#0 55814053#1 55814053#2 55814053#5"/>
	<!-- ['vittayu', 'inter_Rama4', 'inter_Rama4', 'Asok'] -->
	<route id="AAAA4" edges="178173932#0 300803489#0 300803489#1 300803489#2 825786379 825786380 300803484 480596365 480596367#0 480596367#1 480596367#3 825786383#0 825786397 752225467 459492912#0 459492912#1 825786400 459492916#0 459492916#0-AddedOffRampEdge 824116543 824116547 824116548 824116545 481971013#0 481971013#1-AddedOnRampEdge 481971013#1 481971013#2-AddedOnRampEdge 481971013#2 25292712#0-AddedOnRampEdge 25292712#0 384498040#0 453632988#0 453632988#3 453632988#4"/>
	<!-- ['Rama3', 'inter_5naranong', 'inter_5naranong', 'vittayu'] -->
	<route id="AAAA5" edges="154579450#0 154579450#0-AddedOffRampEdge 154579450#1 154579450#2 198975441#0 198975441#1 198975441#6 198975441#6-AddedOffRampEdge 178872812#0 178872812#0-AddedOffRampEdge 178872812#1 178872812#2 178872812#2-AddedOffRampEdge 178872812#3 178872812#4 157373210#0-AddedOnRampEdge 157373210#0 157373210#1 157373210#2 157373210#2-AddedOffRampEdge 157373209#0 157373209#1 756119203 25047032#1 824116558 824116559#0 25053626 25047974#0 25047974#1 25047974#2 459492913#0 459492913#2 459492913#3 825786399 786133405 825786398 752225466 825786395#0 480596363 466838066#0 466838066#1 300803492#0 300803492#1 300803492#2 300803492#4 300803492#6 300803492#7 300803482"/>
	<!-- ['Rama3', 'inter_5naranong', 'inter_5naranong', 'inter_Rama4', 'inter_Rama4', 'inter_kasem Rat', 'inter_kasem Rat', 'Prakanong'] -->
	<route id="AAAA6" edges="154579450#0 154579450#0-AddedOffRampEdge 154579450#1 154579450#2 198975441#0 198975441#1 198975441#6 198975441#6-AddedOffRampEdge 198975441#8 198975441#9 198975441#10-AddedOnRampEdge 198975441#10 178872818#0 178872818#1 157373210#0-AddedOnRampEdge 157373210#0 157373210#1 157373210#2 157373210#2-AddedOffRampEdge 157373209#0 157373209#1 756119203 25047032#1 824116558 824116559#0 25053626 338595771#1 824116547 824116548 824116545 153225678#0 153225678#1-AddedOnRampEdge 153225678#1 153225678#2 153225678#3 820340552#0 820340552#1 820340552#2 459551209#0 459551209#3 482209830#0 300813736#0 300813736#2 300813736#3 300813736#4 820345539#3 820345543"/>
	<!-- ['Rama3', 'inter_5naranong', 'inter_5naranong', 'inter_Surakakorn', 'inter_Surakakorn', 'Right_Surakakorn'] -->
	<route id="AAAA7" edges="154579450#0 154579450#0-AddedOffRampEdge 154579450#1 154579450#2 198975441#0 198975441#1 198975441#6 198975441#6-AddedOffRampEdge 178872812#0 178872812#0-AddedOffRampEdge 178872812#1 178872812#2 178872812#2-AddedOffRampEdge 178872812#3 178872812#4 157373210#0-AddedOnRampEdge 157373210#0 157373210#1 157373210#2 157373210#2-AddedOffRampEdge 157373209#0 157373209#1 756119203 25047032#1 824116558 824116559#0 25053626 185563494 824116554 824116555#0 824116555#0-AddedOffRampEdge 824116555#3 482384848#0 482384848#1 -55814053#0 55814053#1 55814053#2 55814053#5"/>
	<!-- ['South_Surakakorn', 'inter_Surakakorn', 'inter_Surakakorn', 'inter_kasem Rat', 'inter_kasem Rat', 'Prakanong'] -->
	<route id="AAAA8" edges="153225687#0 153225687#1 153225687#2 153225687#4 153225687#5 153225687#6 153225687#8 153225687#9-AddedOnRampEdge 153225687#10 153225687#10-AddedOffRampEdge 153225687#13 482384842#0 482384842#1-AddedOnRampEdge 482384842#2-AddedOnRampNode 482384842#2 321845933#2 321845933#1 321845933#3 482209830#0 300813736#0 300813736#2 300813736#3 300813736#4 820345539#3 820345543"/>
	<!-- ['Prakanong', 'inter_kasem Rat', 'inter_kasem Rat', 'inter_Rama4', 'inter_Rama4', 'inter_5naranong', 'inter_5naranong', 'road_naranong'] -->
	<route id="AAAA9"  edges="825786433#0 825786433#1 825786433#2 825786433#3 825786433#6 820373193 820373194#0 482209831#0 482209831#2 820373195 820373196#0 820373198#0 825786415 157059855 824116549#0 824116550#0 157063985#0 552779154#4 -552779154#3 -552779154#2 -552779154#1 613455561#0 613455561#1"/>
	<!-- ['Prakanong', 'inter_kasem Rat', 'inter_kasem Rat', 'inter_Rama4', 'inter_Rama4', 'inter_5naranong', 'inter_5naranong', 'Rama3'] -->
	<route id="AAAA10" color="green" edges="825786433#0 825786433#1 825786433#2 825786433#3 825786433#6 820373193 820373194#0 482209831#0 482209831#2 820373195 820373196#0 820373198#0 825786415 157059855 824116549#0 824116550#0 824116552#0 824116553 25053633#1 824116557 gneE27 824116556#0 824116556#2 154579460#1 154579460#2 154579460#2-AddedOffRampEdge 157373208#0 154579460#6 157373206#0 157373206#1-AddedOnRampEdge 157373206#1 157373206#2 157373206#3 157373206#4 157373206#5 157373206#6 157373206#7-AddedOnRampEdge 157373206#7 157373206#10 157373206#10-AddedOffRampEdge 157373206#12 157373206#13 198975428#0 198975536"/>
	<!-- ['Asok', 'inter_Rama4', 'inter_Rama4', 'inter_kasem Rat', 'inter_kasem Rat', 'inter_Surakakorn', 'inter_Surakakorn', 'South_Surakakorn'] -->
	<route id="AAAA11" color="red" edges="185563490 766072319#1 453680009#0 453680009#0-AddedOffRampEdge 25053655#0 25053655#0-AddedOffRampEdge 825786414 821785869#0 157059859 153225678#1-AddedOnRampEdge 153225678#1 153225678#2 153225678#3 820340552#0 820340552#1 820340552#2 459551209#0 459551209#3 482209833#0 482209833#1 292571830 292571830-AddedOffRampEdge 321845932#1 292576585#0 292576585#1-AddedOnRampEdge 292576585#1 292576585#1-AddedOffRampEdge 292576585#3 292576585#4 292576585#6 292576585#7 292576585#8 292576585#10"/>
	<!-- ['Asok', 'inter_Rama4', 'inter_Rama4', 'inter_5naranong', 'inter_5naranong', 'inter_Surakakorn', 'inter_Surakakorn', 'Right_Surakakorn'] -->
	<route id="AAAA12" edges="185563490 766072319#1 453680009#0 453680009#0-AddedOffRampEdge 25053655#0 25053655#0-AddedOffRampEdge 825786414 821785869#0 821785867 9168676 824116549#0 824116550#0 185563494 824116554 824116555#0 824116555#0-AddedOffRampEdge 824116555#3 482384848#0 482384848#1 -55814053#0 55814053#1 55814053#2 55814053#5"/>
	<!-- ['Asok', 'inter_Rama4', 'inter_Rama4', 'inter_5naranong', 'inter_5naranong', 'road_naranong'] -->
	<route id="AAAA13" edges="185563490 766072319#1 453680009#0 453680009#0-AddedOffRampEdge 25053655#0 25053655#0-AddedOffRampEdge 825786414 821785869#0 821785867 9168676 824116549#0 824116550#0 157063985#0 552779154#4 -552779154#3 -552779154#2 -552779154#1 613455561#0 613455561#1"/>
	<!-- ['Asok', 'inter_Rama4', 'inter_Rama4', 'inter_5naranong', 'inter_5naranong', 'Rama3'] -->
	<route id="AAAA14" edges="185563490 766072319#1 453680009#0 453680009#0-AddedOffRampEdge 25053655#0 25053655#0-AddedOffRampEdge 825786414 821785869#0 821785867 9168676 824116549#0 824116550#0 824116552#0 824116553 25053633#1 824116557 gneE27 824116556#0 824116556#2 154579460#1 154579460#2 154579460#2-AddedOffRampEdge 157373208#0 154579460#6 157373206#0 157373206#1-AddedOnRampEdge 157373206#1 157373206#2 157373206#3 157373206#4 157373206#5 157373206#6 157373206#7-AddedOnRampEdge 157373206#7 157373206#10 157373206#10-AddedOffRampEdge 157373206#12 157373206#13 198975428#0 198975536"/>
	<!-- ['Prakanong', 'inter_kasem Rat', 'inter_kasem Rat', 'inter_Surakakorn', 'inter_Surakakorn', 'inter_5naranong', 'inter_5naranong', 'Rama3'] -->
	<route id="AAAA15" color="orange" edges="825786433#0 825786433#1 825786433#2 825786433#3 825786433#6 820373193 820373194#0 482209833#0 482209833#1 292571830 292571830-AddedOffRampEdge 321845932#1 482384850#0 482384850#1-AddedOnRampEdge 482384850#1 482384850#2 338595767 824116552#0 824116553 25053633#1 824116557 gneE27 824116556#0 157373201#0 157373201#0-AddedOffRampEdge 157373201#1 758274454 157373203#1 157373203#2 154579460#1 154579460#2 154579460#2-AddedOffRampEdge 157373208#0 154579460#6 157373206#0 157373206#1-AddedOnRampEdge 157373206#1 157373206#2 157373206#3 157373206#4 157373206#5 157373206#6 157373206#7-AddedOnRampEdge 157373206#7 157373206#10 157373206#10-AddedOffRampEdge 157373206#12 157373206#13 198975428#0 198975536"/>
	<!-- ['vittayu', 'inter_5naranong', 'inter_5naranong', 'inter_Surakakorn', 'inter_Surakakorn', 'Right_Surakakorn'] -->
	<route id="AAAA16" edges="178173932#0 300803489#0 300803489#1 300803489#2 825786379 825786380 300803484 480596365 480596367#0 480596367#1 480596367#3 825786383#0 825786397 752225467 459492912#0 459492912#1 825786400 459492916#0 459492916#0-AddedOffRampEdge 824116544 185563494 824116554 824116555#0 824116555#0-AddedOffRampEdge 824116555#3 482384848#0 482384848#1 -55814053#0 55814053#1 55814053#2 55814053#5"/>
	<!-- ['Prakanong', 'inter_kasem Rat', 'inter_kasem Rat', 'inter_Rama4', 'inter_Rama4', 'Asok'] -->
	<route id="AAAA17" edges="825786433#0 825786433#1 825786433#2 825786433#3 825786433#6 820373193 820373194#0 482209831#0 482209831#2 820373195 820373196#0 820373198#0 825786415 825786416 481971013#0 481971013#1-AddedOnRampEdge 481971013#1 481971013#2-AddedOnRampEdge 481971013#2 25292712#0-AddedOnRampEdge 25292712#0 384498040#0 453632988#0 453632988#3 453632988#4"/>
	<!-- ['Rama3', 'inter_5naranong', 'inter_5naranong', 'inter_Rama4', 'inter_Rama4', 'Asok'] -->
	<route id="AAAA18" edges="154579450#0 154579450#0-AddedOffRampEdge 154579450#1 154579450#2 198975441#0 198975441#1 198975441#6 198975441#6-AddedOffRampEdge 198975441#8 198975441#9 198975441#10-AddedOnRampEdge 198975441#10 178872818#0 178872818#1 157373210#0-AddedOnRampEdge 157373210#0 157373210#1 157373210#2 157373210#2-AddedOffRampEdge 157373209#0 157373209#1 756119203 25047032#1 824116558 824116559#0 25053626 338595771#1 824116547 824116548 824116545 481971013#0 481971013#1-AddedOnRampEdge 481971013#1 481971013#2-AddedOnRampEdge 481971013#2 25292712#0-AddedOnRampEdge 25292712#0 384498040#0 453632988#0 453632988#3 453632988#4"/>
	<!-- ['vittayu', 'inter_Rama4', 'inter_Rama4', 'Asok'] -->
	<route id="AAAA19" edges="178173932#0 300803489#0 300803489#1 300803489#2 825786379 825786380 300803484 480596365 480596367#0 480596367#1 480596367#3 825786383#0 825786397 752225467 459492912#0 459492912#1 825786400 459492917#0 157059852 481971013#1-AddedOnRampEdge 481971013#1 481971013#2-AddedOnRampEdge 481971013#2 25292712#0-AddedOnRampEdge 25292712#0 384498040#0 453632988#0 453632988#3 453632988#4"/>

	<flow begin="0" end="1000" departPos="free" departLane="best" id="0" vehsPerHour="100.0" route="AAAA0" type="Car"/>
	<flow begin="0" end="1000" departPos="free" departLane="best" id="1" vehsPerHour="100.0" route="AAAA1" type="Car"/>
	<flow begin="0" end="1000" departPos="free" departLane="best" id="2" vehsPerHour="100.0" route="AAAA2" type="Car"/>
	<flow begin="0" end="1000" departPos="free" departLane="best" id="3" vehsPerHour="100.0" route="AAAA3" type="Car"/>
	<flow begin="0" end="1000" departPos="free" departLane="best" id="4" vehsPerHour="100.0" route="AAAA4" type="Car"/>
	<flow begin="0" end="1000" departPos="free" departLane="best" id="5" vehsPerHour="100.0" route="AAAA5" type="Car"/>
	<flow begin="0" end="1000" departPos="free" departLane="best" id="6" vehsPerHour="100.0" route="AAAA6" type="Car"/>
	<flow begin="0" end="1000" departPos="free" departLane="best" id="7" vehsPerHour="100.0" route="AAAA7" type="Car"/>
	<flow begin="0" end="1000" departPos="free" departLane="best" id="8" vehsPerHour="100.0" route="AAAA8" type="Car"/>
	<flow begin="0" end="1000" departPos="free" departLane="best" id="9" vehsPerHour="100.0" route="AAAA9" type="Car"/>
	<flow begin="0" end="1000" departPos="free" departLane="best" id="10" vehsPerHour="100.0" route="AAAA10" type="Car"/>
	<flow begin="0" end="1000" departPos="free" departLane="best" id="11" vehsPerHour="100.0" route="AAAA11" type="Car"/>
	<flow begin="0" end="1000" departPos="free" departLane="best" id="12" vehsPerHour="100.0" route="AAAA12" type="Car"/>
	<flow begin="0" end="1000" departPos="free" departLane="best" id="13" vehsPerHour="100.0" route="AAAA13" type="Car"/>
	<flow begin="0" end="1000" departPos="free" departLane="best" id="14" vehsPerHour="100.0" route="AAAA14" type="Car"/>
	<flow begin="0" end="1000" departPos="free" departLane="best" id="15" vehsPerHour="100.0" route="AAAA15" type="Car"/>
	<flow begin="0" end="1000" departPos="free" departLane="best" id="16" vehsPerHour="100.0" route="AAAA16" type="Car"/>
	<flow begin="0" end="1000" departPos="free" departLane="best" id="17" vehsPerHour="164.0" route="route1" type="Car"/>


	<flow begin="0" end="1000" departPos="free" departLane="best" id="18" vehsPerHour="50.0" route="AAAA0" type="Bus">
		<stop lane="825786415_0" startPos="17.13" endPos="27.13" duration="20.00"/>
    </flow>

	<flow begin="0" end="1000" departPos="free" departLane="best" id="19" vehsPerHour="50.0" route="AAAA1" type="Bus">
		<stop lane="825786415_0" startPos="17.13" endPos="27.13" duration="20.00"/>
    </flow>

	<flow begin="0" end="1000" departPos="free" departLane="best" id="20" vehsPerHour="50.0" route="AAAA10" type="Bus">
		<stop lane="825786415_0" startPos="17.13" endPos="27.13" duration="20.00"/>
    </flow>

	<flow begin="0" end="1000" departPos="free" departLane="best" id="21" vehsPerHour="50.0" route="AAAA11" type="Bus">
		<stop lane="153225678#2_0" startPos="44.03" endPos="54.03" duration="20.00"/>
    </flow>


	<flow begin="0" end="1000" departPos="free" departLane="best" id="24" vehsPerHour="50.0" route="AAAA9" type="Bus">
		<stop lane="825786415_0" startPos="17.13" endPos="27.13" duration="20.00"/>
    </flow>

	<flow begin="0" end="1000" departPos="free" departLane="best" id="25" vehsPerHour="50.0" route="AAAA6" type="Bus">
		<stop lane="153225678#2_0" startPos="44.03" endPos="54.03" duration="20.00"/>
    </flow>

	<flow begin="0" end="1000" departPos="free" departLane="best" id="26" vehsPerHour="100.0" route="AAAA17" type="Car"/>
	<flow begin="0" end="1000" departPos="free" departLane="best" id="27" vehsPerHour="100.0" route="AAAA18" type="Car"/>
	<flow begin="0" end="1000" departPos="free" departLane="best" id="28" vehsPerHour="100.0" route="AAAA19" type="Car"/>
</routes>
<!--AAAA0 AAAA1 AAAA8 AAAA9 AAAA10 AAAA15-->
<!-- AAAA6 AAAA11-->
